
This summary file was generated by TurbSim (from OpenFAST-v4.2.0) on 17-Mar-2026 at 16:26:44.


Runtime Options:

-194378360  Random seed #1
    RANLUX  Type of random number generator
         F  Output binary HH turbulence parameters?
         F  Output formatted turbulence parameters?
         F  Output AeroDyn HH files?
         T  Output AeroDyn FF files?
         F  Output BLADED FF files?
         F  Output tower data?
         F  Output HAWC FF files?
         T  Output formatted FF files?
         F  Output coherent turbulence time step file?
 0 -  NONE  IEC turbulence models scaled to exact specified standard deviation


Turbine/Model Specifications:

        30  Vertical grid-point matrix dimension
       200  Horizontal grid-point matrix dimension
     1.000  Time step [seconds]
    90.000  Analysis time [seconds]
    90.000  Usable output time [seconds]
   150.000  Hub height [m]
   300.000  Grid height [m]
  2000.000  Grid width [m]
     0.000  Vertical flow angle [degrees]
     8.000  Horizontal flow angle [degrees]


Meteorological Boundary Conditions:

    IECKAI  IEC Kaimal spectral model
         1  IEC standard: IEC 61400-1 Ed. 3: 2005
         A  IEC turbulence characteristic
       NTM  IEC Normal Turbulence Model
       N/A  IEC Extreme Turbulence Model (ETM) "c" parameter [m/s]
       PL   Wind profile type
    90.000  Reference height [m]
     7.000  Reference wind speed [m/s]
       N/A  Jet height [m]
     0.200  Power law exponent
     0.030  Surface roughness length [m]


Non-IEC Meteorological Boundary Conditions:

       N/A  Site latitude [degrees]
       N/A  Gradient Richardson number
       N/A  Friction or shear velocity [m/s]
       N/A  Mixing layer depth [m]
       N/A  Mean hub u'w' Reynolds stress
       N/A  Mean hub u'v' Reynolds stress
       N/A  Mean hub v'w' Reynolds stress


Spatial Coherence Models:

       IEC  u-component coherence model
      NONE  v-component coherence model
      NONE  w-component coherence model
(   12.000, 0.353E-03)  u-component coherence parameters
                   N/A  v-component coherence parameters
                   N/A  w-component coherence parameters
       N/A  Coherence exponent


You have requested that the following file(s) be generated:

   Generator_Ambient/TurbSim2.bts (AeroDyn/TurbSim full-field wind file)
   Generator_Ambient/TurbSim2.u (formatted full-field U-component file)
   Generator_Ambient/TurbSim2.v (formatted full-field V-component file)
   Generator_Ambient/TurbSim2.w (formatted full-field W-component file)


Turbulence Simulation Scaling Parameter Summary:

   Turbulence model used                            =  IEC Kaimal
   Turbulence characteristic                        =  A
   IEC turbulence type                              =  Normal Turbulence Model
   IEC standard                                     =  IEC 61400-1 Ed. 3: 2005
   Mean wind speed at hub height                    =    7.753 m/s
   Expected value of turbulence intensity at 15 m/s =   16.000%
   Characteristic value of standard deviation       =    1.826 m/s
   Turbulence scale                                 =   42.000 m
   u-component integral scale                       =  340.200 m
   Coherency scale                                  =  340.200 m
   Characteristic value of hub turbulence intensity =   23.557%
   Gradient Richardson number                       =    0.000

   Wind profile type                                =  Power law
   Power law exponent                               =    0.200
   Mean shear across rotor disk                     =    0.030 (m/s)/m
   Assumed rotor diameter                           =  300.000 m
   Surface roughness length                         =    0.030 m

   Nyquist frequency of turbulent wind field        =    0.500 Hz

   Number of time steps in the FFT                  =       90
   Number of time steps output                      =       90
   Number of points simulated                       =     6001


Mean Flow Angles:

   Vertical   =   0.0 degrees
   Horizontal =   8.0 degrees

Mean Wind Speed Profile:

   Height    Wind Speed   Horizontal Angle  Vertical Angle  U-comp (X)   V-comp (Y)   W-comp (Z)
     (m)        (m/s)         (degrees)       (degrees)       (m/s)        (m/s)        (m/s)   
   ------    ----------   ----------------  --------------  ----------   ----------   ----------
    300.0        8.91            8.00            0.00          8.82         1.24         0.00
    289.7        8.84            8.00            0.00          8.76         1.23         0.00
    279.3        8.78            8.00            0.00          8.69         1.22         0.00
    269.0        8.71            8.00            0.00          8.63         1.21         0.00
    258.6        8.65            8.00            0.00          8.56         1.20         0.00
    248.3        8.58            8.00            0.00          8.49         1.19         0.00
    237.9        8.50            8.00            0.00          8.42         1.18         0.00
    227.6        8.43            8.00            0.00          8.35         1.17         0.00
    217.2        8.35            8.00            0.00          8.27         1.16         0.00
    206.9        8.27            8.00            0.00          8.19         1.15         0.00
    196.6        8.18            8.00            0.00          8.10         1.14         0.00
    186.2        8.10            8.00            0.00          8.02         1.13         0.00
    175.9        8.00            8.00            0.00          7.93         1.11         0.00
    165.5        7.91            8.00            0.00          7.83         1.10         0.00
    155.2        7.81            8.00            0.00          7.73         1.09         0.00
    150.0        7.75            8.00            0.00          7.68         1.08         0.00
    144.8        7.70            8.00            0.00          7.62         1.07         0.00
    134.5        7.59            8.00            0.00          7.51         1.06         0.00
    124.1        7.47            8.00            0.00          7.39         1.04         0.00
    113.8        7.34            8.00            0.00          7.26         1.02         0.00
    103.4        7.20            8.00            0.00          7.13         1.00         0.00
     93.1        7.05            8.00            0.00          6.98         0.98         0.00
     82.8        6.88            8.00            0.00          6.82         0.96         0.00
     72.4        6.70            8.00            0.00          6.64         0.93         0.00
     62.1        6.50            8.00            0.00          6.44         0.90         0.00
     51.7        6.27            8.00            0.00          6.20         0.87         0.00
     41.4        5.99            8.00            0.00          5.93         0.83         0.00
     31.0        5.66            8.00            0.00          5.60         0.79         0.00
     20.7        5.22            8.00            0.00          5.17         0.73         0.00
     10.3        4.54            8.00            0.00          4.50         0.63         0.00
      0.0        0.45            8.00            0.00          0.45         0.06         0.00


Harvested Random Seeds after Generation of the Random Numbers:

      7527380 K 1
            0 K 2


Hub-Height Simulated Turbulence Statistical Summary:

   Type of Wind        Min (m/s)   Mean (m/s)    Max (m/s)  Sigma (m/s)       TI (%)
   ----------------    ---------   ----------    ---------  -----------       ------
   Longitudinal (u)         5.46         7.75        10.29        1.109       14.308
   Lateral (v)             -2.63         0.00         2.91        1.199       15.470
   Vertical (w)            -1.78         0.00         2.21        0.781       10.068
   U component              5.25         7.68        10.23        1.103       14.373
   V component             -1.48         1.08         4.13        1.205       15.692
   W component             -1.78         0.00         2.21        0.781       10.167
   Horizontal (U&V)         5.58         7.84        10.29        1.118       14.252
   Total                    5.58         7.88        10.33        1.113       14.115

                       Min Reynolds     Mean Reynolds    Max Reynolds    Correlation
   Product             Stress (m/s)^2   Stress (m/s)^2   Stress (m/s)^2  Coefficient
   ----------------    --------------   --------------   --------------  -----------
   u'w'                     -2.306             0.196             2.445         0.227
   u'v'                     -2.900             0.061             3.580         0.046
   v'w'                     -2.193             0.163             4.652         0.174


   Friction Velocity (Ustar)  =      0.443 m/s
   Maximum Instantaneous TKE  =      5.006 (m/s)^2
   Maximum Instantaneous CTKE =      2.328 (m/s)^2


Grid Point Variance Summary:

   Y-coord-1000.00 -989.95 -979.90 -969.85 -959.80 -949.75 -939.70 -929.65 -919.60 -909.55 -899.50 -889.45 -879.40 -869.35 -859.30 -849.25 -839.20 -829.15 -819.10 -809.05 -798.99 -788.94 -778.89 -768.84 -758.79 -748.74 -738.69 -728.64 -718.59 -708.54 -698.49 -688.44 -678.39 -668.34 -658.29 -648.24 -638.19 -628.14 -618.09 -608.04 -597.99 -587.94 -577.89 -567.84 -557.79 -547.74 -537.69 -527.64 -517.59 -507.54 -497.49 -487.44 -477.39 -467.34 -457.29 -447.24 -437.19 -427.14 -417.09 -407.04 -396.98 -386.93 -376.88 -366.83 -356.78 -346.73 -336.68 -326.63 -316.58 -306.53 -296.48 -286.43 -276.38 -266.33 -256.28 -246.23 -236.18 -226.13 -216.08 -206.03 -195.98 -185.93 -175.88 -165.83 -155.78 -145.73 -135.68 -125.63 -115.58 -105.53  -95.48  -85.43  -75.38  -65.33  -55.28  -45.23  -35.18  -25.13  -15.08   -5.03    5.03   15.08   25.13   35.18   45.23   55.28   65.33   75.38   85.43   95.48  105.53  115.58  125.63  135.68  145.73  155.78  165.83  175.88  185.93  195.98  206.03  216.08  226.13  236.18  246.23  256.28  266.33  276.38  286.43  296.48  306.53  316.58  326.63  336.68  346.73  356.78  366.83  376.88  386.93  396.98  407.04  417.09  427.14  437.19  447.24  457.29  467.34  477.39  487.44  497.49  507.54  517.59  527.64  537.69  547.74  557.79  567.84  577.89  587.94  597.99  608.04  618.09  628.14  638.19  648.24  658.29  668.34  678.39  688.44  698.49  708.54  718.59  728.64  738.69  748.74  758.79  768.84  778.89  788.94  798.99  809.05  819.10  829.15  839.20  849.25  859.30  869.35  879.40  889.45  899.50  909.55  919.60  929.65  939.70  949.75  959.80  969.85  979.90  989.95 1000.00

   Height   Standard deviation at grid points for the u component:
   300.00    1.125   1.285   1.083   1.315   1.406   1.137   1.125   1.374   1.446   0.957   1.004   0.815   0.922   1.425   1.155   1.256   1.168   1.173   1.148   0.911   0.831   0.965   0.923   0.880   1.039   0.903   0.957   1.046   1.096   1.069   1.029   1.388   1.150   1.131   0.834   1.140   1.152   1.335   1.123   1.033   0.807   1.065   1.100   0.919   0.896   0.852   1.102   1.046   1.007   0.999   1.151   0.852   0.921   1.042   1.177   0.961   0.758   0.733   0.987   0.921   0.830   1.054   1.180   1.133   0.952   0.914   1.181   1.033   1.287   1.234   1.160   1.070   1.085   0.923   1.285   1.226   1.014   1.185   0.945   1.023   1.129   1.157   1.162   0.965   0.952   0.879   1.081   1.295   1.055   0.809   1.230   1.511   1.687   2.018   2.225   1.930   1.784   2.133   2.232   1.787   1.439   1.743   2.046   1.944   1.550   1.697   1.294   1.805   1.999   1.279   1.311   1.371   1.596   1.415   1.640   1.881   1.596   1.270   1.124   1.247   1.014   1.217   1.366   1.448   1.486   1.334   1.531   1.447   1.816   1.860   1.559   1.283   1.152   0.965   1.450   1.588   1.352   1.129   1.148   0.847   0.817   0.863   1.004   1.109   1.145   1.127   1.187   1.282   1.008   1.178   1.306   1.138   0.979   0.876   1.050   1.123   1.205   1.114   1.031   1.114   0.907   0.943   0.975   1.053   1.073   1.276   1.297   1.322   0.953   1.037   1.058   1.061   1.377   1.406   1.343   1.382   1.268   1.161   1.418   1.608   1.433   1.671   1.413   0.950   1.262   1.481   1.459   1.628   1.290   1.330   1.141   0.966   1.377   1.025   1.220   1.379   1.160   1.039   1.001   1.081
   289.66    0.985   1.038   1.163   1.424   1.515   1.051   1.388   1.267   1.463   1.097   0.988   0.808   1.044   1.442   1.546   1.210   1.235   1.173   1.448   1.180   0.963   1.028   0.827   0.833   1.090   1.238   1.486   1.145   1.026   1.124   1.107   1.191   1.342   1.327   1.143   1.109   1.143   1.295   1.351   1.110   1.119   0.867   0.923   0.861   0.953   0.895   1.037   0.996   0.973   1.144   1.231   1.107   1.163   0.829   0.970   1.350   1.196   1.249   0.865   0.911   0.986   1.302   0.983   1.131   1.000   1.113   1.129   1.184   0.904   1.205   1.543   1.006   0.847   0.961   1.211   1.428   1.154   1.297   1.377   1.186   1.242   1.117   1.311   1.052   0.829   1.042   0.839   1.060   0.880   1.186   1.383   1.289   1.536   1.910   2.038   2.284   1.992   2.029   2.024   1.774   2.052   1.881   2.114   2.396   1.919   2.071   1.755   1.846   1.802   1.575   1.325   1.050   1.433   1.207   1.425   1.522   1.454   1.161   1.146   1.233   1.054   1.130   1.354   1.023   1.103   1.196   1.179   0.934   1.425   1.799   1.283   0.861   0.770   0.963   1.492   1.409   1.451   1.275   0.802   0.800   1.007   0.910   1.179   1.011   1.178   1.210   1.272   1.174   1.039   1.228   1.251   1.447   1.196   1.376   1.232   0.969   1.029   0.885   0.813   1.064   1.279   1.086   1.034   1.149   0.972   1.414   1.215   1.012   1.101   1.071   1.437   1.299   1.185   1.335   1.525   1.366   1.114   1.067   0.938   1.122   1.436   1.543   1.683   1.339   1.575   1.707   1.286   1.393   1.169   1.204   1.181   0.951   1.110   1.197   1.409   1.449   1.092   1.018   0.997   0.844
   279.31    0.995   1.081   1.224   1.186   1.384   1.278   1.317   1.393   1.601   1.129   0.771   1.047   1.058   1.218   1.387   1.405   1.473   1.521   1.545   1.185   1.481   1.399   1.254   1.019   1.207   1.213   1.328   1.197   1.242   1.022   1.093   1.158   1.029   0.988   1.007   0.992   1.060   1.194   1.342   1.161   1.156   0.946   0.825   0.778   1.022   1.282   1.229   1.018   1.084   1.263   1.130   0.802   1.155   0.910   1.000   1.090   1.239   1.095   0.915   0.905   1.102   1.152   1.059   0.988   1.038   1.225   1.126   1.055   0.852   1.030   1.151   1.157   0.957   1.070   1.424   1.367   1.331   1.560   1.278   1.458   1.043   1.008   1.168   1.135   1.070   0.906   0.952   0.966   1.087   1.241   1.270   1.415   1.426   1.883   1.469   1.864   2.035   2.372   1.857   2.089   2.075   1.571   1.805   1.848   2.069   2.178   2.277   2.172   2.249   1.722   1.190   1.161   1.485   1.413   1.580   1.223   1.140   0.998   1.205   1.396   1.121   1.340   1.141   1.161   0.737   0.874   1.244   1.204   1.552   1.569   1.257   1.053   1.003   1.215   1.278   1.510   1.390   1.186   1.056   0.953   1.197   0.931   1.045   0.850   0.889   1.266   1.119   1.315   1.006   0.871   1.155   1.407   1.178   1.120   1.166   1.060   1.145   1.270   1.156   1.263   0.879   1.037   1.012   0.786   1.035   1.344   1.209   0.978   1.163   1.271   1.649   1.466   1.493   1.520   1.357   1.122   1.162   0.863   0.823   0.901   1.136   1.492   1.332   1.428   1.475   1.344   1.587   1.469   1.500   1.646   1.461   1.235   1.229   0.935   1.213   1.101   1.098   0.807   0.820   0.791
   268.97    1.076   1.057   1.051   1.220   1.101   1.374   1.229   1.274   1.437   1.504   0.895   0.904   1.159   0.890   1.024   1.415   1.145   1.282   1.576   1.524   1.631   1.916   1.752   1.385   1.481   1.575   1.195   1.411   1.222   1.201   1.132   1.340   1.257   1.156   1.044   1.153   1.056   1.171   1.235   1.195   0.941   0.924   0.819   1.033   0.939   0.987   1.146   0.978   1.255   1.080   1.136   1.087   1.108   0.882   0.900   1.121   1.218   0.928   0.981   0.949   1.073   0.953   0.791   1.072   1.004   1.189   1.118   0.935   0.990   1.100   0.970   0.987   1.333   1.164   1.455   1.491   1.465   1.412   1.581   1.475   1.080   0.695   0.947   1.200   1.457   1.251   0.870   0.855   1.118   1.384   1.256   1.490   1.751   1.972   1.403   1.502   1.924   2.043   2.246   2.319   1.654   1.864   1.657   1.739   1.773   1.532   2.124   1.912   2.088   1.486   1.476   0.920   1.116   1.113   1.125   1.076   1.341   1.109   0.882   1.074   1.077   1.319   1.238   1.018   1.270   1.489   1.282   1.249   1.369   1.249   1.346   1.435   1.709   1.353   1.313   1.075   0.962   0.931   1.295   1.151   1.431   0.994   1.041   1.081   1.363   1.423   1.014   1.131   1.151   1.397   1.335   1.436   1.448   1.283   1.265   1.017   1.136   1.185   1.103   0.988   1.129   1.142   1.145   1.089   0.874   1.048   1.138   1.061   1.154   1.240   1.381   1.506   1.377   1.185   1.220   0.886   0.670   0.940   0.716   0.889   1.390   1.418   1.298   1.241   1.139   1.198   1.414   1.408   1.284   1.240   1.232   1.123   1.049   0.814   0.973   0.873   0.920   0.991   0.988   0.826
   258.62    1.238   0.950   1.359   1.404   1.122   1.412   1.152   1.079   1.193   1.129   1.105   0.960   0.941   1.034   1.157   1.179   1.336   1.470   1.388   1.492   1.350   1.562   1.695   1.882   1.701   1.259   1.489   1.493   1.328   1.077   1.456   1.156   0.954   1.227   0.884   1.276   1.086   1.258   1.465   1.179   1.265   0.921   1.129   1.161   1.186   1.007   1.290   1.153   1.252   1.381   1.386   1.487   1.060   1.087   1.171   0.977   1.107   1.291   1.070   1.036   0.958   0.934   0.973   1.223   1.247   1.233   1.105   1.049   1.062   1.237   1.023   1.346   1.306   1.487   1.543   1.532   1.555   1.580   1.400   1.390   1.127   0.930   0.936   1.159   1.310   1.387   1.283   1.004   1.056   1.063   1.346   1.315   1.657   1.553   1.811   2.036   1.856   2.030   2.070   1.967   1.887   2.063   2.005   1.525   1.392   1.860   2.103   2.041   1.903   1.971   1.350   1.054   1.182   0.844   0.821   0.993   1.120   0.948   0.939   0.950   1.058   1.115   1.021   1.236   1.339   1.422   1.550   1.429   1.148   1.241   1.408   1.600   1.681   1.333   0.886   1.106   0.797   0.801   1.133   1.314   1.467   0.950   1.216   0.872   1.196   1.023   0.929   0.738   1.283   1.573   1.252   1.153   1.331   1.076   1.372   1.104   0.912   1.334   1.100   0.877   0.992   1.109   0.905   0.883   1.176   0.840   1.090   1.264   1.204   1.247   1.252   0.939   1.348   0.987   1.126   1.236   0.879   1.056   1.032   0.975   1.218   1.316   1.231   1.134   1.061   1.090   0.999   1.191   1.446   1.503   1.173   1.082   0.905   0.881   0.963   1.110   0.971   1.077   1.066   1.240
   248.28    1.367   1.364   1.309   1.232   1.299   1.197   1.294   0.835   0.859   0.960   1.048   0.978   0.869   1.004   0.777   1.339   1.293   1.348   1.330   1.196   1.531   1.473   1.567   1.990   1.841   1.434   1.263   1.041   1.071   1.046   1.189   1.491   1.181   1.408   1.130   1.341   1.421   1.479   1.489   1.292   1.380   1.318   1.326   1.642   1.795   1.383   1.609   1.385   1.846   1.781   1.636   1.602   0.964   1.117   0.931   0.991   1.135   1.406   1.337   1.353   0.916   0.998   1.379   1.593   1.511   1.275   1.260   1.255   1.437   1.023   1.442   1.744   1.587   1.144   1.460   1.648   1.706   1.765   1.809   1.341   1.073   1.305   1.303   1.227   1.103   0.894   1.032   1.048   0.866   1.137   1.235   1.470   1.729   1.857   1.644   1.972   2.197   2.343   2.308   1.943   2.022   1.830   1.723   2.059   1.745   1.618   1.875   2.026   1.339   1.477   1.401   1.240   1.185   1.209   0.755   0.850   1.029   1.154   1.083   0.941   0.789   1.003   1.003   1.078   1.386   1.417   1.554   1.185   1.081   0.972   0.945   1.258   1.380   1.557   1.151   1.015   0.937   1.178   1.056   1.205   1.223   1.394   1.157   1.185   0.970   1.106   1.217   1.103   1.285   1.352   1.547   1.284   1.415   1.460   1.106   0.932   1.112   1.140   1.342   1.381   1.260   1.093   0.977   1.022   1.262   1.341   1.386   1.301   1.028   1.103   0.929   1.196   1.231   1.302   0.911   1.149   0.847   1.051   1.052   0.990   1.123   1.033   1.139   0.948   1.233   1.022   0.826   0.986   1.148   1.162   1.004   1.037   0.975   1.217   1.054   1.010   1.001   1.137   1.268   1.292
   237.93    1.543   1.444   1.246   0.908   1.057   1.213   1.187   1.046   0.844   0.825   0.781   0.871   1.055   1.305   1.175   1.247   1.207   1.410   1.157   1.371   1.436   1.655   1.987   2.222   2.052   1.426   1.371   0.882   0.871   1.036   1.310   1.783   1.645   1.322   1.162   1.121   1.214   1.219   1.314   1.078   1.475   1.508   1.487   1.630   1.779   1.533   1.331   1.512   1.631   1.550   1.448   1.346   1.114   0.865   0.876   1.047   1.065   1.463   1.229   1.019   1.049   1.056   1.482   1.365   1.516   1.617   1.365   1.354   1.275   0.967   1.324   1.583   1.422   1.242   1.589   1.295   1.579   1.798   1.502   1.289   1.184   1.097   1.230   1.377   0.836   0.994   0.868   0.885   1.048   0.984   0.966   1.187   1.570   1.680   1.670   1.858   1.893   1.828   1.615   1.679   1.703   1.604   1.863   2.049   1.576   2.017   2.058   1.964   1.310   1.544   1.101   1.077   1.047   1.004   1.046   1.140   0.860   1.118   1.106   0.863   1.204   0.982   0.997   1.242   1.359   1.398   1.380   1.132   1.285   0.901   0.873   0.920   1.099   1.137   1.035   0.875   0.826   1.315   1.242   1.098   0.793   1.103   1.253   1.097   0.912   1.036   1.039   1.215   1.104   1.108   1.141   1.073   1.166   0.961   1.109   1.091   1.007   1.359   1.116   1.473   1.382   1.205   1.039   1.329   0.952   1.159   1.241   0.932   1.157   0.857   0.996   1.014   0.933   0.889   0.933   0.953   0.893   0.926   1.010   1.175   1.176   0.962   1.201   1.245   1.068   1.368   1.178   0.878   1.049   0.893   1.228   1.095   1.075   1.010   0.847   1.018   0.969   1.294   1.459   1.329
   227.59    1.482   1.195   0.740   1.011   0.914   0.926   1.206   0.970   1.005   0.839   1.057   0.857   0.917   1.144   1.206   1.228   1.107   1.183   1.239   1.399   1.757   2.149   1.991   2.036   2.067   1.469   1.337   0.860   1.029   1.061   1.316   1.699   2.041   1.609   1.598   1.299   1.740   1.469   1.272   1.591   1.301   1.685   1.415   1.239   1.603   1.806   1.082   1.274   1.256   1.092   1.070   1.078   0.920   0.920   0.884   0.877   1.112   1.210   1.025   0.993   0.875   0.898   1.236   1.357   1.272   1.429   1.423   1.183   1.087   1.104   1.118   1.069   1.545   1.781   1.721   1.345   1.456   1.468   1.499   1.005   0.721   0.927   1.074   1.269   1.051   0.992   1.084   1.053   1.038   0.786   1.107   1.340   1.204   1.305   1.287   1.537   1.572   1.561   1.050   1.496   1.090   1.421   1.500   1.585   1.877   1.838   1.878   1.514   1.610   1.410   1.420   1.236   1.014   1.172   0.994   1.143   1.225   1.128   1.073   1.041   1.165   1.052   1.222   0.950   1.168   1.210   1.577   1.087   1.001   1.127   0.826   1.047   1.036   1.104   1.146   1.035   1.418   1.536   1.454   1.230   0.802   1.234   1.339   1.059   1.059   1.166   1.170   1.105   0.891   0.933   0.987   1.176   0.907   1.097   0.928   0.960   1.051   1.158   1.216   1.098   1.059   1.075   1.042   1.186   1.062   1.310   1.196   1.222   1.316   1.123   1.069   0.932   0.789   0.807   0.915   0.844   0.920   0.945   1.091   1.129   1.010   1.179   1.209   0.810   1.084   1.280   1.192   1.271   1.542   1.296   0.861   1.053   1.030   1.085   0.955   0.919   1.048   1.317   1.294   1.120
   217.24    1.663   1.275   1.206   1.199   1.027   1.089   1.245   1.251   1.116   1.006   0.864   0.954   1.010   0.987   1.150   0.854   1.128   1.383   1.174   1.235   1.685   1.912   1.944   1.741   1.915   1.832   1.227   0.753   1.055   1.048   1.460   1.686   2.005   1.958   1.613   1.837   2.204   1.687   1.423   1.355   1.813   1.957   1.632   1.325   1.680   1.549   1.535   1.037   1.273   1.093   0.970   0.818   0.919   0.995   1.012   1.079   0.910   1.152   0.910   0.892   0.963   0.783   1.251   1.241   1.377   1.601   1.242   1.035   1.075   1.178   1.242   1.037   1.435   1.682   1.894   1.431   1.254   1.271   1.575   1.110   0.840   0.982   1.095   0.903   1.010   1.193   1.223   1.293   1.121   1.169   1.051   1.195   1.432   1.431   1.326   1.326   1.416   1.220   0.918   1.366   1.400   1.660   1.464   1.663   1.390   1.619   1.307   1.760   1.629   1.754   1.256   1.412   1.157   0.913   1.102   1.272   1.343   1.326   1.170   1.231   1.494   1.223   1.238   1.042   1.078   0.977   1.304   1.184   1.608   1.341   0.987   0.909   1.100   0.908   1.147   1.049   1.161   1.344   1.092   1.166   1.011   1.107   1.184   1.171   1.020   1.214   0.989   0.891   0.908   0.910   1.011   0.792   1.068   1.045   1.180   0.936   0.843   1.107   1.083   0.798   0.792   0.880   0.938   1.051   1.228   1.275   1.295   0.935   0.850   1.134   1.247   1.184   1.117   1.336   1.026   1.087   1.107   0.926   1.112   0.971   1.079   1.065   1.158   1.157   0.889   1.077   1.362   1.188   1.387   1.160   0.870   0.837   0.955   0.861   1.151   0.920   1.048   1.260   1.148   1.329
   206.90    1.622   1.363   1.309   1.442   1.071   1.041   1.105   1.148   1.295   0.901   0.838   0.929   0.927   1.069   1.068   1.178   1.267   1.259   1.294   1.443   1.579   1.726   1.864   1.762   1.739   1.546   1.181   0.857   1.097   1.204   1.082   1.520   1.701   1.837   1.625   1.898   1.989   1.890   1.565   1.841   1.595   1.822   1.844   1.596   2.005   1.838   1.523   1.605   1.039   1.135   0.920   1.037   1.077   1.167   1.055   1.301   1.168   0.987   0.970   1.021   0.888   1.111   1.125   1.500   1.617   1.737   1.294   1.257   1.233   1.257   1.178   1.381   1.691   1.545   1.728   1.252   1.178   1.456   1.674   1.116   1.039   1.122   1.117   0.827   0.990   1.043   1.095   1.172   1.376   1.167   1.158   1.761   1.616   1.448   1.119   1.013   1.238   1.024   1.296   1.376   1.279   1.516   1.673   1.394   1.514   1.626   1.371   1.644   1.659   1.646   1.100   1.147   0.970   0.933   0.984   1.126   1.213   1.341   0.962   1.081   1.172   1.360   1.740   1.676   1.685   1.016   1.349   1.690   1.719   1.398   1.266   1.484   1.375   0.974   1.081   1.022   1.275   1.023   1.004   1.226   1.013   1.036   0.956   1.083   1.038   1.002   0.903   0.975   1.115   1.015   1.030   0.862   0.855   0.945   1.141   0.882   0.947   1.049   1.245   1.003   1.409   1.222   0.950   1.040   1.198   1.058   1.000   1.015   0.969   0.998   1.339   1.128   1.224   1.340   1.418   1.207   1.230   1.213   1.293   1.138   1.174   1.073   0.803   0.782   0.974   0.907   1.104   1.060   1.101   0.948   0.987   1.221   1.110   1.011   1.110   1.001   1.064   1.056   1.130   0.980
   196.55    1.517   1.823   1.492   1.539   1.241   1.117   1.121   0.938   1.049   0.761   0.945   0.927   1.090   1.019   1.179   1.206   1.205   1.234   1.001   1.156   0.951   1.349   1.502   1.556   1.215   1.336   1.167   1.059   0.913   1.046   1.219   1.576   1.288   1.632   1.233   1.424   1.574   1.965   1.982   1.614   1.800   1.867   1.690   1.698   1.841   1.981   1.814   1.466   1.196   0.939   1.002   1.047   1.337   1.282   0.881   0.953   1.051   0.979   1.049   1.035   1.004   0.976   1.493   1.518   1.273   1.642   1.300   1.503   1.307   1.340   1.227   1.346   1.528   1.485   1.500   1.002   1.046   1.080   1.325   1.281   1.365   1.298   1.217   0.893   1.000   1.018   1.229   1.508   1.380   1.189   1.332   1.638   1.592   1.615   1.658   1.174   1.296   1.202   1.108   1.021   1.238   1.453   1.362   1.286   1.549   1.449   1.781   1.437   1.468   1.228   1.040   1.013   1.176   0.956   1.154   0.927   1.092   0.980   0.881   0.999   1.100   1.575   1.822   1.453   1.443   1.329   1.591   1.484   1.166   1.443   1.255   1.408   1.311   1.173   0.974   1.309   1.137   0.842   1.181   1.163   1.224   1.005   0.914   1.129   0.997   1.322   1.136   0.987   0.897   0.790   0.929   1.022   1.058   0.877   0.981   1.103   1.060   0.955   0.954   1.023   1.407   1.396   1.327   1.146   1.235   1.152   0.981   1.021   0.834   1.070   1.187   1.303   1.167   1.185   1.258   1.278   1.416   1.555   1.709   1.509   1.381   1.083   0.976   1.085   1.154   1.102   1.253   0.977   1.010   0.991   1.131   1.420   0.919   1.072   1.148   1.210   0.931   1.109   1.257   1.167
   186.21    1.255   1.434   1.451   1.511   1.245   1.116   1.203   1.219   1.268   1.221   0.867   0.994   0.898   1.096   1.067   1.204   1.137   0.973   0.928   1.015   1.140   1.109   1.148   1.032   1.245   1.349   1.160   1.132   1.009   1.336   1.075   1.136   1.356   1.500   1.381   1.318   1.188   1.943   1.924   1.855   2.126   1.930   1.483   1.545   1.755   1.806   1.254   1.307   1.337   1.309   1.061   1.008   1.098   1.360   0.998   0.781   0.861   0.671   0.901   1.003   1.138   1.417   1.547   1.239   1.385   1.409   1.276   1.514   1.366   1.164   1.158   1.197   1.358   1.296   1.166   1.014   1.320   1.328   1.412   0.929   1.244   1.248   1.289   0.975   0.850   1.067   0.907   1.185   1.382   1.430   1.507   1.624   1.525   1.442   1.382   1.110   1.016   1.177   0.981   0.808   1.070   1.032   1.380   1.683   1.833   1.756   1.571   1.563   1.412   1.112   1.041   0.869   1.148   1.117   1.088   0.946   1.117   0.967   0.969   0.915   1.240   1.603   1.713   1.602   1.444   1.362   1.356   1.339   1.035   1.204   1.493   1.460   1.238   1.052   1.257   1.239   1.084   1.072   1.124   1.301   1.405   1.171   1.266   1.260   1.341   1.494   1.254   1.091   0.963   0.985   1.288   1.094   0.956   1.075   0.991   0.931   1.079   0.909   1.128   0.896   1.062   1.083   1.141   1.286   1.188   1.080   0.991   0.941   1.030   0.998   0.847   1.273   1.302   1.222   1.192   1.152   1.379   1.225   1.383   1.218   1.078   1.090   1.173   1.097   1.088   1.197   1.486   1.105   0.961   1.044   0.997   1.152   1.187   1.092   1.118   1.109   1.106   1.141   1.285   1.267
   175.86    1.089   1.305   1.127   1.365   1.144   1.298   1.262   1.267   1.164   1.165   0.832   0.962   1.073   1.110   0.938   0.981   1.282   0.950   0.902   0.965   0.980   0.957   0.907   0.983   1.066   1.177   1.004   1.192   1.414   1.455   1.369   0.880   1.083   1.549   1.200   1.301   1.642   1.685   2.314   2.498   2.165   2.169   2.101   1.403   1.436   1.421   1.467   1.181   1.330   1.456   1.216   1.226   1.235   1.073   1.190   1.056   1.071   1.180   1.037   0.982   1.054   1.205   1.452   1.157   1.385   1.079   1.291   1.587   1.401   1.322   0.994   0.960   1.206   1.127   1.380   1.115   1.146   1.581   1.552   1.375   1.280   1.238   1.276   1.082   1.242   1.494   1.102   1.085   1.298   1.253   1.202   0.970   1.508   1.592   1.399   1.110   1.141   1.264   0.985   1.107   1.136   1.549   1.139   1.388   1.534   1.639   1.220   1.202   0.978   1.202   0.940   1.075   1.198   0.821   0.958   0.960   1.044   1.082   1.014   1.227   1.064   1.387   1.414   1.000   1.137   1.482   1.521   1.906   1.209   1.396   1.265   1.204   1.257   1.429   0.950   1.121   1.121   1.032   1.002   0.986   1.375   1.589   1.226   1.323   1.228   1.117   1.067   1.203   0.951   1.037   1.205   1.397   1.448   0.993   1.206   1.098   1.074   1.074   0.851   1.178   1.406   1.526   1.205   1.326   0.924   0.940   1.078   1.291   0.946   1.002   1.078   0.974   1.048   1.027   1.158   1.249   1.152   1.276   1.337   0.955   0.869   1.119   1.038   1.069   1.438   1.457   1.452   1.195   1.430   1.133   1.300   1.246   0.997   1.060   1.181   0.941   0.937   1.108   1.368   1.086
   165.52    1.546   1.417   1.259   1.316   1.093   0.996   1.122   0.887   0.930   0.966   0.961   0.772   0.994   1.044   1.156   0.974   0.898   1.063   1.045   1.044   0.933   1.021   0.989   0.703   1.090   1.012   1.043   1.059   1.187   1.286   1.070   1.196   1.088   1.263   1.323   1.613   1.250   1.739   2.172   2.257   2.149   2.107   1.729   1.512   1.057   1.206   1.216   1.157   1.152   1.188   1.264   0.674   1.142   1.157   1.140   1.052   1.151   1.068   0.747   1.049   0.914   1.108   1.134   1.104   1.112   1.267   1.170   1.292   1.211   0.873   0.903   1.179   1.087   1.152   1.283   1.331   1.389   1.421   1.629   1.486   1.000   1.098   1.168   1.113   1.155   1.150   1.473   1.332   1.523   0.893   1.269   1.373   1.507   1.496   1.535   1.113   1.357   1.104   1.168   1.075   1.153   1.276   1.328   1.405   1.178   1.210   1.128   1.078   1.095   1.139   1.398   1.112   0.926   1.325   1.161   1.074   0.811   0.744   0.890   0.985   0.997   1.023   1.275   0.980   1.217   1.315   1.554   1.586   1.435   1.648   1.637   1.262   1.586   1.204   1.003   0.993   1.074   0.822   1.009   0.954   1.217   1.278   1.037   1.094   1.147   1.005   1.045   1.011   0.879   1.136   1.119   1.335   1.533   1.531   0.915   0.878   1.216   1.241   1.133   0.997   1.273   1.254   1.260   0.994   1.158   1.103   1.160   1.072   0.972   0.868   1.020   1.022   0.971   0.977   0.941   1.108   1.440   1.478   0.818   0.952   0.793   1.314   1.244   0.990   1.461   1.354   1.261   1.295   0.962   1.118   1.328   1.319   0.817   1.056   0.982   0.973   1.039   1.200   1.241   1.166
   155.17    1.334   0.916   1.153   0.880   1.072   1.001   0.920   0.780   0.987   0.881   0.979   1.136   0.907   0.948   1.043   1.072   1.029   1.167   1.067   0.998   0.894   0.925   1.034   1.125   1.297   1.239   1.109   1.193   1.181   1.135   0.791   1.136   0.892   0.997   1.123   1.404   1.213   1.793   1.924   2.002   1.982   1.588   1.597   1.448   1.265   1.358   1.155   0.935   1.307   1.232   1.217   0.955   1.080   1.325   1.050   1.267   1.261   1.146   1.172   1.072   0.819   1.125   0.973   1.135   1.144   1.073   1.032   0.927   1.204   1.043   0.789   0.902   1.114   0.973   1.216   1.082   1.342   1.604   1.480   1.076   1.085   0.848   1.157   1.312   1.219   1.462   1.525   1.386   1.336   1.114   1.003   1.015   1.150   1.087   1.248   1.125   1.003   1.186   0.887   1.216   1.191   1.554   1.298   1.386   1.367   1.164   0.766   1.228   1.239   1.219   1.365   1.422   1.119   1.246   1.068   0.891   0.765   1.014   0.790   1.035   0.993   1.145   1.192   1.234   1.128   1.123   1.179   1.077   1.527   1.647   1.683   1.629   1.524   1.415   1.145   1.489   1.096   0.976   0.822   1.002   1.190   1.077   0.920   0.971   1.199   1.269   1.274   1.338   1.365   1.320   1.613   1.149   1.333   1.465   1.165   0.985   1.282   1.397   1.092   0.977   1.046   1.220   1.208   1.248   1.247   1.480   1.124   1.675   1.503   1.221   1.328   1.237   1.373   1.276   1.285   1.237   1.204   1.429   0.894   1.228   1.201   1.173   1.342   1.225   1.288   1.421   1.151   1.205   1.342   1.082   1.327   1.355   1.120   0.855   0.953   0.973   0.876   1.052   1.011   0.744
   144.83    1.116   0.819   0.998   0.897   1.015   0.849   1.049   0.948   1.021   1.010   1.037   1.000   0.828   1.087   1.161   1.188   0.957   1.181   0.994   1.000   1.090   1.017   1.274   1.400   1.488   1.243   1.184   1.440   1.159   1.017   0.916   0.938   0.961   0.998   1.004   1.062   1.349   1.654   1.598   1.517   1.754   1.678   1.832   1.796   1.782   1.745   0.971   0.963   1.305   1.062   0.986   1.092   1.152   1.137   1.133   0.833   1.112   1.069   0.861   1.000   1.066   0.952   0.908   0.974   0.980   0.955   0.972   0.914   0.960   1.078   1.185   0.918   1.109   1.202   1.365   1.340   1.338   1.365   1.427   1.197   0.811   0.823   0.961   1.168   1.119   1.263   1.500   1.497   1.389   1.124   1.029   1.072   0.942   1.088   1.058   1.326   1.411   1.357   0.922   0.903   1.311   1.576   1.507   1.200   1.058   0.962   0.889   1.079   1.234   1.246   1.366   1.174   1.093   1.068   0.866   1.216   1.006   1.051   1.238   1.262   1.340   1.365   0.898   0.993   1.154   1.041   1.491   1.493   1.255   1.674   1.288   1.429   1.057   1.069   1.352   1.592   1.518   0.999   1.228   1.115   1.066   0.943   1.209   1.084   1.099   1.103   1.097   1.442   1.429   1.216   1.566   1.419   1.186   1.211   1.464   1.126   1.324   1.229   1.124   1.163   1.154   1.080   1.058   1.467   1.647   1.460   1.737   1.813   1.495   1.583   1.240   1.315   1.476   1.341   1.616   1.261   0.944   1.071   0.794   1.113   0.985   1.105   1.241   1.072   1.000   1.167   0.937   0.821   1.224   1.038   1.338   1.004   1.170   0.897   1.128   1.098   1.055   0.913   1.176   1.012
   134.48    1.271   1.043   1.184   1.087   1.030   0.934   0.738   0.813   0.966   1.218   1.273   0.965   1.243   0.969   1.351   1.204   1.223   1.114   0.993   1.160   1.368   1.085   1.190   1.275   1.359   0.992   1.221   1.446   1.393   1.396   0.946   0.913   0.882   0.847   0.922   1.003   0.924   1.197   1.516   1.805   1.485   1.509   1.925   1.875   1.453   1.478   1.172   1.084   1.188   1.235   1.148   1.088   0.975   0.905   1.083   1.084   0.821   0.944   0.987   0.802   0.908   1.167   0.968   0.984   0.909   1.037   0.840   0.884   0.808   1.213   1.419   1.180   1.123   0.984   1.314   1.396   1.273   1.373   1.046   1.163   1.136   0.771   1.144   0.885   0.980   1.172   1.367   1.372   1.000   1.093   1.200   1.366   1.223   1.304   1.151   1.316   1.632   1.263   1.055   0.879   1.341   1.467   1.462   0.906   0.734   0.883   1.120   1.001   1.221   0.977   1.114   1.026   1.360   1.184   1.217   1.116   1.234   1.149   1.054   1.227   1.299   1.480   1.199   0.985   1.007   0.815   1.182   1.444   1.656   1.599   1.485   1.538   1.277   1.453   1.578   1.407   1.483   1.222   1.319   1.191   1.045   1.145   1.040   1.433   0.848   0.842   1.059   1.333   1.688   1.730   1.945   1.858   1.422   1.649   1.490   1.597   1.589   1.067   1.268   1.524   1.532   1.499   0.954   1.519   1.771   1.584   1.773   1.623   1.803   1.413   1.628   1.512   1.676   1.742   1.790   1.599   1.192   1.129   0.844   0.954   0.871   0.910   1.259   1.185   1.069   0.985   0.777   0.950   1.191   1.173   1.187   1.334   1.281   0.924   0.997   1.170   1.253   1.115   1.034   0.940
   124.14    1.012   0.901   1.008   0.992   0.909   1.008   1.087   1.141   0.918   0.931   0.984   1.042   1.249   1.070   1.241   1.172   1.188   1.230   1.134   1.056   1.010   1.166   1.080   0.855   1.172   1.389   1.259   1.368   1.380   1.025   0.834   0.852   0.882   0.852   1.036   1.087   1.121   1.394   1.481   1.542   1.579   1.561   1.954   1.483   1.406   1.201   1.378   1.192   1.243   0.989   1.358   1.179   1.089   1.147   1.065   1.092   1.066   0.816   0.899   0.997   0.832   0.791   0.902   0.925   0.801   0.794   0.869   1.106   1.328   1.221   1.096   1.086   1.287   1.250   1.614   1.741   1.722   1.277   1.228   1.421   1.088   1.158   1.247   1.044   0.796   0.829   1.006   0.857   0.959   0.852   1.139   1.083   1.196   1.115   1.237   0.947   1.317   1.674   1.024   1.153   1.428   1.503   1.324   1.079   1.035   0.778   1.065   1.074   1.196   1.138   1.017   1.285   1.165   1.111   1.083   1.162   1.063   1.340   1.244   1.064   1.395   1.270   0.942   0.837   1.087   0.834   1.176   1.249   1.340   1.522   1.324   1.474   1.202   1.229   1.243   1.106   1.278   1.224   1.236   1.416   1.000   1.112   1.173   1.198   1.354   0.951   1.024   1.361   1.382   1.691   1.632   1.343   1.031   1.434   1.234   1.433   1.497   1.613   1.168   1.397   1.342   1.483   1.370   1.364   1.379   1.568   1.559   1.466   1.487   1.564   1.358   1.776   1.715   1.702   1.735   1.300   0.851   1.036   0.935   0.895   1.171   0.902   1.400   1.088   0.977   0.921   1.103   0.863   1.121   0.964   0.977   1.062   1.351   1.175   0.928   0.894   0.970   1.193   1.099   0.921
   113.79    1.046   0.712   1.097   1.231   1.066   1.156   1.121   0.925   0.945   0.968   0.887   0.963   1.223   1.024   0.958   1.185   1.351   1.258   1.067   0.893   0.766   1.030   0.964   1.050   1.251   1.412   1.319   1.121   1.241   1.114   1.022   1.026   0.998   0.960   0.833   1.028   1.284   1.215   1.387   0.982   1.188   1.400   1.712   1.880   1.311   1.339   1.343   0.886   0.894   1.004   1.243   1.327   1.116   1.091   0.868   0.957   1.203   1.064   1.178   1.109   1.251   0.885   1.077   0.907   0.970   1.150   0.908   1.315   1.501   1.191   1.284   1.135   1.078   1.128   1.463   1.707   1.386   1.287   1.346   1.499   1.232   1.320   1.195   0.835   0.863   0.983   0.992   0.842   1.113   0.891   1.040   0.874   0.970   1.095   1.134   1.290   1.172   1.373   1.390   1.192   1.304   1.340   1.040   1.063   1.241   0.895   1.079   1.425   1.172   0.940   1.177   1.059   1.174   1.297   1.095   0.944   1.208   0.953   1.187   1.084   1.269   1.135   0.920   1.117   0.925   0.810   1.116   1.320   1.077   1.161   1.349   1.194   0.928   1.016   1.203   1.319   1.325   1.030   1.152   1.052   1.207   0.847   0.979   1.179   1.433   1.025   1.004   1.267   1.359   1.515   1.674   1.521   1.273   1.276   1.159   1.193   1.325   1.301   1.464   1.305   1.050   1.064   1.406   1.237   1.174   1.188   1.431   1.865   1.526   1.461   1.961   1.790   1.762   1.462   1.633   1.448   1.340   1.241   1.311   1.087   1.340   1.306   1.271   1.514   1.069   0.972   1.253   0.843   1.235   1.092   1.023   0.986   1.287   0.974   1.343   1.101   0.901   1.049   0.982   1.081
   103.45    1.353   1.179   1.138   1.035   0.891   0.894   1.073   1.233   0.970   0.765   0.904   1.031   1.134   1.528   1.282   1.305   1.335   1.299   1.065   0.951   0.767   1.036   0.972   1.022   1.028   1.058   1.172   1.259   1.452   1.483   1.245   1.116   1.114   1.182   1.364   1.072   0.968   1.360   1.285   1.257   1.423   1.384   1.416   1.480   1.166   0.914   1.058   0.970   0.864   0.876   1.405   0.994   1.287   1.416   1.058   1.119   1.403   0.946   1.057   0.989   1.001   0.982   0.844   0.825   0.979   0.964   1.268   1.290   1.575   1.242   0.973   1.069   1.043   0.928   1.141   1.514   1.577   1.342   1.501   1.422   1.687   1.120   1.113   0.896   1.049   1.131   0.913   1.273   1.186   1.039   1.224   1.320   1.033   1.141   1.142   1.193   0.960   1.183   1.025   1.114   1.339   1.529   1.203   0.930   1.034   1.139   0.976   1.176   1.223   1.196   1.348   1.171   1.050   1.062   0.986   0.891   0.966   1.038   1.180   1.125   1.036   0.978   0.873   0.969   1.120   1.007   1.198   0.900   1.190   1.342   1.391   1.138   1.237   1.275   1.215   1.346   1.201   0.887   1.022   1.038   1.126   0.915   1.064   1.311   1.666   1.456   0.980   1.255   1.269   1.483   1.454   1.237   1.421   0.926   0.948   0.764   0.993   1.256   1.307   1.084   0.993   1.460   1.305   1.411   1.341   1.093   1.537   1.571   1.564   1.994   2.061   2.051   2.005   1.742   1.623   1.616   1.645   1.934   1.468   1.316   1.507   1.750   1.629   1.468   1.001   0.904   1.102   1.158   1.079   1.211   0.904   1.048   1.156   1.263   1.293   1.221   0.850   1.089   0.970   1.058
    93.10    1.072   1.130   1.022   0.960   0.991   1.023   1.303   1.193   1.118   1.381   0.828   1.090   1.225   1.576   1.564   1.717   1.727   1.279   1.410   1.629   1.280   1.023   1.024   1.199   0.991   1.014   1.060   1.347   1.453   1.547   1.657   1.450   0.937   1.080   1.376   1.520   1.400   1.327   1.049   1.279   1.500   0.973   1.031   1.357   1.248   0.865   0.861   1.151   1.107   1.037   1.335   1.523   1.228   1.481   1.209   1.445   1.367   1.324   0.990   0.962   0.835   0.989   0.872   0.869   0.701   1.136   1.404   1.575   1.463   1.224   0.977   0.965   0.783   0.969   1.344   1.106   1.568   1.649   1.815   1.946   1.810   1.026   1.029   0.987   0.876   1.276   1.357   1.409   1.142   1.161   1.081   1.246   1.086   1.255   1.085   0.902   0.949   1.007   1.250   1.492   1.365   1.175   1.318   1.063   0.994   1.052   1.097   0.975   1.123   1.325   1.251   1.351   0.892   0.927   0.930   0.965   1.002   0.864   1.037   1.163   0.815   0.995   0.943   1.089   0.940   1.040   1.140   1.109   0.849   1.092   1.044   1.308   1.119   1.193   1.016   1.005   0.896   1.086   1.156   0.928   1.021   1.053   1.125   1.100   1.435   1.249   0.924   0.882   1.149   1.364   1.074   1.217   1.298   1.275   1.068   0.954   0.955   0.999   1.244   1.091   1.009   1.236   1.393   1.160   1.455   1.206   1.516   1.090   1.634   1.997   1.727   1.665   1.323   1.709   1.435   1.062   1.399   1.532   1.465   1.457   1.315   1.515   1.314   1.160   1.016   1.124   1.036   0.920   1.012   1.285   1.133   0.996   1.084   1.142   1.275   1.273   0.843   0.839   0.950   1.106
    82.76    1.134   1.008   0.950   0.971   1.201   1.193   1.399   1.459   1.561   1.110   1.043   0.898   1.083   1.336   1.683   1.508   1.689   1.390   1.794   1.769   1.665   1.499   0.954   1.198   1.206   1.295   0.955   1.064   1.379   1.804   1.608   1.544   1.425   1.087   1.175   1.224   1.500   1.014   1.112   0.918   1.215   0.997   0.968   1.088   1.284   1.157   0.897   1.048   1.012   1.185   1.373   1.190   1.430   1.290   1.270   1.486   1.484   1.801   1.337   1.183   1.005   0.951   0.853   1.154   1.216   1.132   1.189   1.224   1.239   1.042   1.131   1.205   1.135   1.430   1.291   1.443   1.524   1.721   1.561   1.587   1.551   1.319   1.255   1.389   1.124   1.176   1.500   1.301   1.066   1.181   1.164   1.207   1.389   1.187   0.977   1.076   0.741   0.951   1.066   1.073   1.313   1.175   1.439   1.413   1.181   1.131   1.294   1.269   1.076   1.085   1.079   1.328   1.367   0.951   1.202   0.930   1.071   0.722   0.994   0.977   0.998   1.116   0.938   1.198   0.905   1.177   1.166   1.369   1.154   0.955   0.884   1.033   1.131   0.872   0.764   0.880   1.108   0.887   1.059   1.121   0.882   1.092   0.911   1.032   0.971   1.111   0.853   0.796   1.196   1.073   1.424   1.173   1.192   1.022   1.216   1.422   0.846   1.193   1.369   1.068   0.986   0.896   1.069   1.268   1.462   1.105   1.518   1.443   1.608   2.006   1.494   1.428   1.508   1.616   1.263   1.153   1.339   1.338   0.847   1.126   1.214   1.457   0.934   1.230   1.070   1.196   1.018   0.970   0.798   1.089   1.243   1.021   0.914   0.987   0.913   0.913   0.811   0.735   0.843   1.135
    72.41    1.125   1.122   1.024   1.173   1.119   1.276   1.221   0.881   1.156   1.131   0.962   0.743   1.212   1.619   1.358   1.345   1.754   1.442   1.773   1.960   1.732   1.272   0.911   0.901   1.256   1.175   0.876   1.190   1.735   1.859   1.833   1.225   1.099   1.057   0.953   1.191   1.360   1.005   1.225   1.365   0.964   0.968   1.042   1.124   0.996   0.892   0.837   1.199   1.203   1.119   0.899   1.180   1.512   1.161   1.369   1.370   1.745   1.636   1.768   1.311   1.305   1.025   0.996   1.241   1.368   1.083   1.359   1.293   1.790   1.738   1.495   1.082   1.059   1.212   1.672   1.239   1.757   2.061   2.201   1.945   1.254   1.020   0.991   1.158   0.827   1.315   1.207   1.423   0.905   0.919   1.035   1.108   1.253   1.408   1.100   0.989   1.000   1.159   1.223   1.220   1.039   1.127   1.259   1.265   1.159   0.914   0.992   0.947   1.581   1.514   1.118   1.530   1.268   1.251   1.129   1.226   1.072   0.837   1.014   0.997   1.085   0.964   1.194   1.009   1.206   1.151   1.189   1.131   1.220   1.054   1.200   1.109   1.158   1.264   1.083   1.081   0.925   1.052   1.093   1.101   1.099   1.038   1.283   1.064   0.911   1.144   0.942   1.043   1.486   1.183   1.495   1.466   1.232   0.986   1.139   1.344   1.062   1.252   1.410   1.200   1.143   1.249   0.947   1.285   1.342   1.341   1.508   1.205   1.678   1.676   1.624   1.150   1.449   1.279   1.576   1.209   1.271   1.114   0.896   0.985   1.058   1.207   1.223   1.077   1.289   1.204   0.901   0.954   0.843   1.188   0.986   1.027   0.817   0.981   1.080   0.852   0.993   1.122   1.080   1.046
    62.07    0.851   1.036   1.167   1.319   1.031   0.964   1.191   1.172   0.897   1.047   1.084   0.816   1.085   1.509   1.381   1.427   1.660   1.465   1.502   1.663   1.634   0.955   1.244   1.105   1.056   1.195   1.105   1.285   1.649   1.770   1.531   1.585   1.153   0.918   0.942   0.994   1.127   1.108   1.211   1.173   1.100   1.059   1.108   1.073   0.858   1.062   1.051   1.025   1.175   0.865   1.080   1.536   1.467   1.599   0.969   1.274   1.415   1.554   1.431   1.378   1.132   0.825   0.978   1.184   1.153   0.841   1.328   1.877   1.625   1.789   1.383   1.001   1.256   1.583   1.305   1.414   2.008   2.143   2.007   1.548   1.651   1.308   0.978   1.203   1.156   1.495   1.516   1.382   1.313   0.978   1.372   1.576   1.231   1.661   1.629   1.234   1.001   1.294   1.117   1.410   1.673   1.516   1.026   0.913   1.265   1.048   1.032   1.204   1.655   1.637   1.611   1.801   1.270   1.333   1.154   0.942   1.136   0.977   0.992   1.112   1.170   1.160   1.101   1.149   1.127   1.237   1.278   1.258   0.938   1.004   0.995   1.421   1.635   1.532   1.259   0.967   0.975   0.820   1.199   1.351   1.021   1.315   1.474   1.047   0.979   0.968   0.991   0.977   1.332   1.535   1.357   1.590   1.573   1.166   1.375   1.275   1.001   1.321   1.659   1.650   1.162   1.236   1.280   1.311   1.034   1.078   1.079   1.314   1.451   1.526   1.315   1.133   1.318   1.480   1.572   1.409   0.932   1.072   1.248   0.916   1.224   1.319   1.047   0.842   1.108   1.410   1.396   1.115   0.992   1.306   1.022   1.072   1.013   1.086   0.990   1.114   0.936   1.089   0.928   1.152
    51.72    0.771   0.970   0.953   1.258   1.169   1.038   1.188   1.061   0.942   0.840   0.877   0.981   1.067   1.491   1.653   1.660   1.661   1.430   1.419   1.548   1.099   1.184   0.992   0.905   0.810   0.833   1.053   1.273   1.339   1.439   1.317   1.387   1.168   0.797   0.778   0.857   1.262   1.293   1.292   1.156   1.461   1.101   1.066   1.177   1.174   1.027   1.040   1.007   0.867   1.061   1.150   1.469   1.481   1.463   1.220   1.048   1.058   1.386   1.780   1.314   1.090   0.701   0.887   1.167   1.162   1.133   1.381   1.705   1.853   1.991   1.004   1.344   1.024   1.266   1.306   1.608   1.941   2.237   1.803   1.749   1.589   1.527   1.777   1.272   1.104   1.470   1.608   1.638   1.670   1.441   1.805   1.407   1.409   1.485   1.792   1.563   1.512   1.336   1.193   1.454   1.669   1.400   1.205   1.042   1.224   1.273   1.090   1.102   1.199   1.584   1.620   1.745   1.395   1.381   1.065   1.115   0.899   1.006   0.995   1.190   1.142   0.932   0.934   0.987   1.052   1.288   1.245   0.969   1.065   0.866   1.308   1.568   1.576   1.078   1.144   0.986   0.943   0.863   1.031   1.252   0.814   1.003   1.159   1.311   1.062   1.115   0.812   0.930   1.000   1.309   1.298   1.283   1.465   1.129   1.109   1.128   1.016   1.337   1.329   1.213   1.277   1.251   1.177   0.992   1.161   1.146   1.224   1.307   1.142   1.162   1.154   1.101   1.612   1.501   1.432   0.988   1.043   1.089   0.916   0.934   0.816   1.125   0.986   0.930   1.290   1.563   1.111   1.082   1.090   1.149   1.411   1.430   1.292   0.986   0.952   1.249   0.910   1.139   0.866   0.839
    41.38    1.181   0.953   1.213   1.308   1.000   1.039   1.414   1.441   1.266   1.138   1.139   0.845   1.162   1.272   1.326   1.506   1.365   1.015   1.094   1.111   1.031   0.975   0.946   1.113   1.183   1.371   1.198   1.366   1.218   1.151   1.114   1.320   1.531   1.323   1.151   1.213   1.147   1.183   1.354   1.404   1.493   1.216   0.999   0.980   1.174   1.103   1.022   0.972   1.033   1.127   1.488   1.092   1.287   1.320   1.187   1.347   1.508   1.377   1.388   1.460   1.198   0.969   0.868   1.375   1.503   1.345   1.216   1.317   1.806   1.828   1.110   1.459   1.323   1.147   1.406   1.629   1.856   1.934   1.906   2.085   1.989   2.089   1.748   1.491   1.150   1.275   1.456   1.215   1.408   1.106   1.602   1.710   1.247   1.201   1.576   1.544   1.733   1.568   1.451   1.444   1.721   1.267   1.325   1.309   1.010   0.926   1.187   0.836   1.008   1.540   1.205   1.697   1.892   1.459   1.130   1.326   1.058   1.168   1.032   1.107   1.306   1.230   1.291   0.952   0.999   1.277   1.211   0.820   0.911   1.189   1.479   1.295   1.314   1.389   1.086   1.103   0.994   0.953   0.911   0.854   0.862   0.950   0.969   1.133   1.164   0.952   1.071   0.967   1.116   1.358   1.054   1.004   1.385   1.319   1.411   1.037   1.038   1.146   1.095   1.050   1.160   1.319   1.253   1.111   1.075   1.075   1.227   0.926   1.060   1.186   1.356   1.716   1.972   1.497   1.248   1.257   1.038   0.942   0.973   0.957   0.944   1.073   0.810   1.045   1.284   1.350   1.424   1.189   1.006   1.281   1.472   1.229   1.124   1.265   1.370   1.154   1.006   1.097   1.000   1.134
    31.03    1.565   1.328   1.370   1.597   1.474   1.368   1.356   1.150   1.161   1.373   1.086   1.084   1.190   1.095   0.897   0.796   0.955   1.115   0.945   0.672   0.854   1.040   0.975   1.083   1.195   1.515   1.402   1.261   1.149   1.106   1.198   1.110   1.522   1.095   1.375   1.249   0.892   1.050   1.317   1.298   1.518   1.311   0.994   1.188   1.109   1.088   0.935   1.203   0.913   1.268   1.435   1.571   1.346   1.147   1.071   1.194   1.228   1.243   1.370   1.024   1.007   1.398   1.363   1.422   1.282   1.475   1.396   1.497   1.628   1.430   1.089   1.202   1.581   1.743   1.841   1.837   1.497   1.220   1.746   1.990   1.528   1.824   1.878   1.734   1.545   1.303   1.144   1.108   1.163   1.115   1.264   1.491   1.282   1.243   1.570   1.395   1.649   1.806   1.811   1.744   1.560   1.384   1.326   1.268   1.246   1.197   1.381   1.306   1.354   1.839   1.770   1.973   1.666   1.824   1.091   1.162   1.321   1.043   0.916   1.064   1.182   0.976   0.913   0.848   0.915   0.966   1.148   1.199   0.763   0.925   1.111   1.068   1.068   0.866   0.911   0.936   1.079   1.003   0.854   1.107   0.745   1.018   1.153   1.028   0.945   0.911   1.035   0.917   1.109   1.149   1.039   1.154   1.260   0.995   1.129   0.976   1.044   1.064   1.465   1.291   0.893   1.342   1.260   1.716   1.346   1.621   1.486   1.091   1.270   1.058   1.130   1.408   1.736   1.660   1.479   1.187   0.806   1.019   1.037   0.934   1.195   1.029   1.107   1.211   1.370   1.449   1.105   1.146   1.072   1.251   1.207   1.281   1.238   1.052   1.311   1.337   1.098   1.064   1.064   1.065
    20.69    1.370   1.061   0.940   1.418   1.443   1.680   1.577   1.094   1.062   1.292   1.329   1.267   1.466   1.179   0.938   0.856   0.898   1.120   1.048   0.975   1.188   1.085   1.180   1.143   1.075   1.144   1.316   1.218   1.162   1.134   1.209   1.329   1.375   1.120   1.131   1.095   0.884   0.797   1.094   1.036   1.207   1.130   1.394   1.128   1.325   1.298   1.357   1.150   1.457   1.660   1.262   1.080   1.393   1.206   0.878   1.063   1.143   1.143   1.063   1.051   1.235   1.356   1.283   1.379   1.752   1.500   1.475   1.380   1.345   1.094   0.970   1.189   1.745   1.992   2.042   1.682   1.808   1.717   1.589   1.740   1.972   1.560   1.784   1.383   1.682   1.391   1.258   1.170   1.125   1.075   1.031   1.313   1.245   1.023   1.442   1.598   1.322   1.602   1.823   1.717   1.276   1.210   1.510   1.400   1.468   1.507   1.346   1.419   1.177   1.650   1.733   1.925   1.758   1.791   1.333   0.847   1.018   1.024   0.870   0.833   0.875   1.048   1.143   1.044   1.001   1.068   1.327   1.264   1.178   0.941   0.932   1.092   0.978   0.929   1.080   0.953   1.014   0.992   1.059   1.139   1.164   1.056   1.342   1.007   1.138   1.154   1.040   1.110   1.145   0.930   1.052   0.987   0.959   0.982   0.854   0.987   1.108   1.078   1.548   1.389   1.471   1.141   1.416   1.453   1.648   1.582   1.218   1.262   1.055   1.179   1.201   1.406   1.712   1.359   1.149   1.104   0.827   0.885   0.995   1.197   1.014   1.021   1.063   0.901   1.042   1.369   1.141   1.306   1.321   1.175   1.190   0.989   1.015   1.168   1.190   1.419   1.352   1.077   1.077   1.288
    10.34    1.152   1.101   1.274   1.436   1.313   1.616   1.393   1.019   1.237   1.340   1.261   0.966   1.133   1.036   1.175   1.114   0.954   1.151   1.298   0.852   1.068   1.192   1.009   1.155   1.031   0.763   0.987   1.037   0.984   0.890   1.112   1.053   1.115   1.016   1.172   1.072   1.100   1.005   1.074   0.983   1.107   1.223   1.200   1.261   1.512   1.328   1.210   1.378   1.381   1.589   1.682   1.372   1.388   1.183   1.258   1.189   1.386   1.401   1.362   1.220   1.101   0.959   0.976   1.270   1.577   1.498   1.205   1.155   1.109   0.865   1.340   1.541   1.702   1.973   2.111   1.994   2.215   1.809   1.827   1.716   1.647   1.775   1.335   1.711   1.632   1.401   1.594   1.252   1.014   1.280   1.394   1.290   1.100   0.978   1.269   1.136   1.331   1.475   1.665   1.486   1.198   1.499   1.366   1.264   1.375   1.385   1.366   1.258   1.657   1.613   1.238   1.511   1.601   1.503   1.056   0.886   1.005   1.055   1.046   1.005   0.991   0.968   1.205   0.890   0.918   0.987   1.195   1.048   1.313   1.169   0.919   1.121   0.982   0.995   1.208   1.324   1.316   0.817   0.965   1.075   1.182   0.953   1.400   0.970   1.167   1.410   1.406   1.238   1.148   1.172   1.308   1.047   0.884   0.907   1.406   1.252   1.131   1.322   1.406   1.520   1.324   1.196   1.493   1.193   1.318   1.400   1.381   1.301   1.327   1.105   1.150   1.247   1.256   1.143   1.210   0.910   0.898   0.773   0.884   0.869   1.033   0.846   0.880   0.965   1.260   1.293   1.354   1.200   1.224   0.900   0.872   1.073   1.214   1.093   0.857   1.199   1.127   1.301   1.286   1.322
     0.00    1.268   1.110   0.907   1.103   1.043   1.265   1.461   1.123   0.996   1.194   1.220   1.008   1.133   0.992   1.268   1.223   0.981   1.219   1.008   1.232   1.163   0.813   1.002   1.204   0.707   0.956   0.967   0.931   0.785   0.930   1.039   1.242   0.894   0.904   0.850   1.018   1.320   1.228   1.104   1.102   1.221   1.296   1.205   1.489   1.607   1.698   1.430   1.707   1.414   1.534   1.552   1.518   1.352   1.497   1.297   1.479   1.678   1.401   1.410   0.986   1.086   1.276   1.265   1.301   1.316   1.364   1.179   1.004   1.044   1.002   1.220   1.375   1.699   1.839   1.865   1.870   1.975   1.779   1.602   1.532   1.756   1.543   1.499   1.376   1.570   1.645   1.371   1.074   1.262   1.494   1.485   1.171   1.207   1.453   1.603   1.302   1.449   1.271   1.325   1.317   1.364   1.439   1.443   1.435   1.607   1.666   1.590   1.551   1.475   1.202   1.176   1.253   1.551   1.319   1.087   0.887   1.149   0.852   1.003   1.035   0.944   1.019   0.939   0.827   0.843   1.170   1.317   1.043   1.369   1.231   0.903   1.051   1.070   0.885   1.038   1.035   1.185   1.069   1.189   1.259   1.121   1.022   1.245   1.387   1.203   1.258   1.298   1.054   1.187   1.394   1.234   1.052   1.056   1.213   1.497   1.707   1.415   1.344   1.164   1.262   0.973   1.184   1.135   1.174   1.413   1.413   0.961   1.280   1.315   1.375   1.312   1.204   1.104   1.217   0.822   1.049   0.873   0.850   0.963   0.939   1.185   1.038   1.141   1.199   1.428   1.339   0.975   1.063   1.197   0.973   1.062   0.894   1.043   1.365   0.954   1.182   1.106   1.246   1.185   1.065

   Height   Standard deviation at grid points for the v component:
   300.00    1.199   1.199   1.199   1.199   1.199   1.199   1.199   1.199   1.199   1.199   1.199   1.199   1.199   1.199   1.199   1.199   1.199   1.199   1.199   1.199   1.199   1.199   1.199   1.199   1.199   1.199   1.199   1.199   1.199   1.199   1.199   1.199   1.199   1.199   1.199   1.199   1.199   1.199   1.199   1.199   1.199   1.199   1.199   1.199   1.199   1.199   1.199   1.199   1.199   1.199   1.199   1.199   1.199   1.199   1.199   1.199   1.199   1.199   1.199   1.199   1.199   1.199   1.199   1.199   1.199   1.199   1.199   1.199   1.199   1.199   1.199   1.199   1.199   1.199   1.199   1.199   1.199   1.199   1.199   1.199   1.199   1.199   1.199   1.199   1.199   1.199   1.199   1.199   1.199   1.199   1.199   1.199   1.199   1.199   1.199   1.199   1.199   1.199   1.199   1.199   1.199   1.199   1.199   1.199   1.199   1.199   1.199   1.199   1.199   1.199   1.199   1.199   1.199   1.199   1.199   1.199   1.199   1.199   1.199   1.199   1.199   1.199   1.199   1.199   1.199   1.199   1.199   1.199   1.199   1.199   1.199   1.199   1.199   1.199   1.199   1.199   1.199   1.199   1.199   1.199   1.199   1.199   1.199   1.199   1.199   1.199   1.199   1.199   1.199   1.199   1.199   1.199   1.199   1.199   1.199   1.199   1.199   1.199   1.199   1.199   1.199   1.199   1.199   1.199   1.199   1.199   1.199   1.199   1.199   1.199   1.199   1.199   1.199   1.199   1.199   1.199   1.199   1.199   1.199   1.199   1.199   1.199   1.199   1.199   1.199   1.199   1.199   1.199   1.199   1.199   1.199   1.199   1.199   1.199   1.199   1.199   1.199   1.199   1.199   1.199
   289.66    1.199   1.199   1.199   1.199   1.199   1.199   1.199   1.199   1.199   1.199   1.199   1.199   1.199   1.199   1.199   1.199   1.199   1.199   1.199   1.199   1.199   1.199   1.199   1.199   1.199   1.199   1.199   1.199   1.199   1.199   1.199   1.199   1.199   1.199   1.199   1.199   1.199   1.199   1.199   1.199   1.199   1.199   1.199   1.199   1.199   1.199   1.199   1.199   1.199   1.199   1.199   1.199   1.199   1.199   1.199   1.199   1.199   1.199   1.199   1.199   1.199   1.199   1.199   1.199   1.199   1.199   1.199   1.199   1.199   1.199   1.199   1.199   1.199   1.199   1.199   1.199   1.199   1.199   1.199   1.199   1.199   1.199   1.199   1.199   1.199   1.199   1.199   1.199   1.199   1.199   1.199   1.199   1.199   1.199   1.199   1.199   1.199   1.199   1.199   1.199   1.199   1.199   1.199   1.199   1.199   1.199   1.199   1.199   1.199   1.199   1.199   1.199   1.199   1.199   1.199   1.199   1.199   1.199   1.199   1.199   1.199   1.199   1.199   1.199   1.199   1.199   1.199   1.199   1.199   1.199   1.199   1.199   1.199   1.199   1.199   1.199   1.199   1.199   1.199   1.199   1.199   1.199   1.199   1.199   1.199   1.199   1.199   1.199   1.199   1.199   1.199   1.199   1.199   1.199   1.199   1.199   1.199   1.199   1.199   1.199   1.199   1.199   1.199   1.199   1.199   1.199   1.199   1.199   1.199   1.199   1.199   1.199   1.199   1.199   1.199   1.199   1.199   1.199   1.199   1.199   1.199   1.199   1.199   1.199   1.199   1.199   1.199   1.199   1.199   1.199   1.199   1.199   1.199   1.199   1.199   1.199   1.199   1.199   1.199   1.199
   279.31    1.199   1.199   1.199   1.199   1.199   1.199   1.199   1.199   1.199   1.199   1.199   1.199   1.199   1.199   1.199   1.199   1.199   1.199   1.199   1.199   1.199   1.199   1.199   1.199   1.199   1.199   1.199   1.199   1.199   1.199   1.199   1.199   1.199   1.199   1.199   1.199   1.199   1.199   1.199   1.199   1.199   1.199   1.199   1.199   1.199   1.199   1.199   1.199   1.199   1.199   1.199   1.199   1.199   1.199   1.199   1.199   1.199   1.199   1.199   1.199   1.199   1.199   1.199   1.199   1.199   1.199   1.199   1.199   1.199   1.199   1.199   1.199   1.199   1.199   1.199   1.199   1.199   1.199   1.199   1.199   1.199   1.199   1.199   1.199   1.199   1.199   1.199   1.199   1.199   1.199   1.199   1.199   1.199   1.199   1.199   1.199   1.199   1.199   1.199   1.199   1.199   1.199   1.199   1.199   1.199   1.199   1.199   1.199   1.199   1.199   1.199   1.199   1.199   1.199   1.199   1.199   1.199   1.199   1.199   1.199   1.199   1.199   1.199   1.199   1.199   1.199   1.199   1.199   1.199   1.199   1.199   1.199   1.199   1.199   1.199   1.199   1.199   1.199   1.199   1.199   1.199   1.199   1.199   1.199   1.199   1.199   1.199   1.199   1.199   1.199   1.199   1.199   1.199   1.199   1.199   1.199   1.199   1.199   1.199   1.199   1.199   1.199   1.199   1.199   1.199   1.199   1.199   1.199   1.199   1.199   1.199   1.199   1.199   1.199   1.199   1.199   1.199   1.199   1.199   1.199   1.199   1.199   1.199   1.199   1.199   1.199   1.199   1.199   1.199   1.199   1.199   1.199   1.199   1.199   1.199   1.199   1.199   1.199   1.199   1.199
   268.97    1.199   1.199   1.199   1.199   1.199   1.199   1.199   1.199   1.199   1.199   1.199   1.199   1.199   1.199   1.199   1.199   1.199   1.199   1.199   1.199   1.199   1.199   1.199   1.199   1.199   1.199   1.199   1.199   1.199   1.199   1.199   1.199   1.199   1.199   1.199   1.199   1.199   1.199   1.199   1.199   1.199   1.199   1.199   1.199   1.199   1.199   1.199   1.199   1.199   1.199   1.199   1.199   1.199   1.199   1.199   1.199   1.199   1.199   1.199   1.199   1.199   1.199   1.199   1.199   1.199   1.199   1.199   1.199   1.199   1.199   1.199   1.199   1.199   1.199   1.199   1.199   1.199   1.199   1.199   1.199   1.199   1.199   1.199   1.199   1.199   1.199   1.199   1.199   1.199   1.199   1.199   1.199   1.199   1.199   1.199   1.199   1.199   1.199   1.199   1.199   1.199   1.199   1.199   1.199   1.199   1.199   1.199   1.199   1.199   1.199   1.199   1.199   1.199   1.199   1.199   1.199   1.199   1.199   1.199   1.199   1.199   1.199   1.199   1.199   1.199   1.199   1.199   1.199   1.199   1.199   1.199   1.199   1.199   1.199   1.199   1.199   1.199   1.199   1.199   1.199   1.199   1.199   1.199   1.199   1.199   1.199   1.199   1.199   1.199   1.199   1.199   1.199   1.199   1.199   1.199   1.199   1.199   1.199   1.199   1.199   1.199   1.199   1.199   1.199   1.199   1.199   1.199   1.199   1.199   1.199   1.199   1.199   1.199   1.199   1.199   1.199   1.199   1.199   1.199   1.199   1.199   1.199   1.199   1.199   1.199   1.199   1.199   1.199   1.199   1.199   1.199   1.199   1.199   1.199   1.199   1.199   1.199   1.199   1.199   1.199
   258.62    1.199   1.199   1.199   1.199   1.199   1.199   1.199   1.199   1.199   1.199   1.199   1.199   1.199   1.199   1.199   1.199   1.199   1.199   1.199   1.199   1.199   1.199   1.199   1.199   1.199   1.199   1.199   1.199   1.199   1.199   1.199   1.199   1.199   1.199   1.199   1.199   1.199   1.199   1.199   1.199   1.199   1.199   1.199   1.199   1.199   1.199   1.199   1.199   1.199   1.199   1.199   1.199   1.199   1.199   1.199   1.199   1.199   1.199   1.199   1.199   1.199   1.199   1.199   1.199   1.199   1.199   1.199   1.199   1.199   1.199   1.199   1.199   1.199   1.199   1.199   1.199   1.199   1.199   1.199   1.199   1.199   1.199   1.199   1.199   1.199   1.199   1.199   1.199   1.199   1.199   1.199   1.199   1.199   1.199   1.199   1.199   1.199   1.199   1.199   1.199   1.199   1.199   1.199   1.199   1.199   1.199   1.199   1.199   1.199   1.199   1.199   1.199   1.199   1.199   1.199   1.199   1.199   1.199   1.199   1.199   1.199   1.199   1.199   1.199   1.199   1.199   1.199   1.199   1.199   1.199   1.199   1.199   1.199   1.199   1.199   1.199   1.199   1.199   1.199   1.199   1.199   1.199   1.199   1.199   1.199   1.199   1.199   1.199   1.199   1.199   1.199   1.199   1.199   1.199   1.199   1.199   1.199   1.199   1.199   1.199   1.199   1.199   1.199   1.199   1.199   1.199   1.199   1.199   1.199   1.199   1.199   1.199   1.199   1.199   1.199   1.199   1.199   1.199   1.199   1.199   1.199   1.199   1.199   1.199   1.199   1.199   1.199   1.199   1.199   1.199   1.199   1.199   1.199   1.199   1.199   1.199   1.199   1.199   1.199   1.199
   248.28    1.199   1.199   1.199   1.199   1.199   1.199   1.199   1.199   1.199   1.199   1.199   1.199   1.199   1.199   1.199   1.199   1.199   1.199   1.199   1.199   1.199   1.199   1.199   1.199   1.199   1.199   1.199   1.199   1.199   1.199   1.199   1.199   1.199   1.199   1.199   1.199   1.199   1.199   1.199   1.199   1.199   1.199   1.199   1.199   1.199   1.199   1.199   1.199   1.199   1.199   1.199   1.199   1.199   1.199   1.199   1.199   1.199   1.199   1.199   1.199   1.199   1.199   1.199   1.199   1.199   1.199   1.199   1.199   1.199   1.199   1.199   1.199   1.199   1.199   1.199   1.199   1.199   1.199   1.199   1.199   1.199   1.199   1.199   1.199   1.199   1.199   1.199   1.199   1.199   1.199   1.199   1.199   1.199   1.199   1.199   1.199   1.199   1.199   1.199   1.199   1.199   1.199   1.199   1.199   1.199   1.199   1.199   1.199   1.199   1.199   1.199   1.199   1.199   1.199   1.199   1.199   1.199   1.199   1.199   1.199   1.199   1.199   1.199   1.199   1.199   1.199   1.199   1.199   1.199   1.199   1.199   1.199   1.199   1.199   1.199   1.199   1.199   1.199   1.199   1.199   1.199   1.199   1.199   1.199   1.199   1.199   1.199   1.199   1.199   1.199   1.199   1.199   1.199   1.199   1.199   1.199   1.199   1.199   1.199   1.199   1.199   1.199   1.199   1.199   1.199   1.199   1.199   1.199   1.199   1.199   1.199   1.199   1.199   1.199   1.199   1.199   1.199   1.199   1.199   1.199   1.199   1.199   1.199   1.199   1.199   1.199   1.199   1.199   1.199   1.199   1.199   1.199   1.199   1.199   1.199   1.199   1.199   1.199   1.199   1.199
   237.93    1.199   1.199   1.199   1.199   1.199   1.199   1.199   1.199   1.199   1.199   1.199   1.199   1.199   1.199   1.199   1.199   1.199   1.199   1.199   1.199   1.199   1.199   1.199   1.199   1.199   1.199   1.199   1.199   1.199   1.199   1.199   1.199   1.199   1.199   1.199   1.199   1.199   1.199   1.199   1.199   1.199   1.199   1.199   1.199   1.199   1.199   1.199   1.199   1.199   1.199   1.199   1.199   1.199   1.199   1.199   1.199   1.199   1.199   1.199   1.199   1.199   1.199   1.199   1.199   1.199   1.199   1.199   1.199   1.199   1.199   1.199   1.199   1.199   1.199   1.199   1.199   1.199   1.199   1.199   1.199   1.199   1.199   1.199   1.199   1.199   1.199   1.199   1.199   1.199   1.199   1.199   1.199   1.199   1.199   1.199   1.199   1.199   1.199   1.199   1.199   1.199   1.199   1.199   1.199   1.199   1.199   1.199   1.199   1.199   1.199   1.199   1.199   1.199   1.199   1.199   1.199   1.199   1.199   1.199   1.199   1.199   1.199   1.199   1.199   1.199   1.199   1.199   1.199   1.199   1.199   1.199   1.199   1.199   1.199   1.199   1.199   1.199   1.199   1.199   1.199   1.199   1.199   1.199   1.199   1.199   1.199   1.199   1.199   1.199   1.199   1.199   1.199   1.199   1.199   1.199   1.199   1.199   1.199   1.199   1.199   1.199   1.199   1.199   1.199   1.199   1.199   1.199   1.199   1.199   1.199   1.199   1.199   1.199   1.199   1.199   1.199   1.199   1.199   1.199   1.199   1.199   1.199   1.199   1.199   1.199   1.199   1.199   1.199   1.199   1.199   1.199   1.199   1.199   1.199   1.199   1.199   1.199   1.199   1.199   1.199
   227.59    1.199   1.199   1.199   1.199   1.199   1.199   1.199   1.199   1.199   1.199   1.199   1.199   1.199   1.199   1.199   1.199   1.199   1.199   1.199   1.199   1.199   1.199   1.199   1.199   1.199   1.199   1.199   1.199   1.199   1.199   1.199   1.199   1.199   1.199   1.199   1.199   1.199   1.199   1.199   1.199   1.199   1.199   1.199   1.199   1.199   1.199   1.199   1.199   1.199   1.199   1.199   1.199   1.199   1.199   1.199   1.199   1.199   1.199   1.199   1.199   1.199   1.199   1.199   1.199   1.199   1.199   1.199   1.199   1.199   1.199   1.199   1.199   1.199   1.199   1.199   1.199   1.199   1.199   1.199   1.199   1.199   1.199   1.199   1.199   1.199   1.199   1.199   1.199   1.199   1.199   1.199   1.199   1.199   1.199   1.199   1.199   1.199   1.199   1.199   1.199   1.199   1.199   1.199   1.199   1.199   1.199   1.199   1.199   1.199   1.199   1.199   1.199   1.199   1.199   1.199   1.199   1.199   1.199   1.199   1.199   1.199   1.199   1.199   1.199   1.199   1.199   1.199   1.199   1.199   1.199   1.199   1.199   1.199   1.199   1.199   1.199   1.199   1.199   1.199   1.199   1.199   1.199   1.199   1.199   1.199   1.199   1.199   1.199   1.199   1.199   1.199   1.199   1.199   1.199   1.199   1.199   1.199   1.199   1.199   1.199   1.199   1.199   1.199   1.199   1.199   1.199   1.199   1.199   1.199   1.199   1.199   1.199   1.199   1.199   1.199   1.199   1.199   1.199   1.199   1.199   1.199   1.199   1.199   1.199   1.199   1.199   1.199   1.199   1.199   1.199   1.199   1.199   1.199   1.199   1.199   1.199   1.199   1.199   1.199   1.199
   217.24    1.199   1.199   1.199   1.199   1.199   1.199   1.199   1.199   1.199   1.199   1.199   1.199   1.199   1.199   1.199   1.199   1.199   1.199   1.199   1.199   1.199   1.199   1.199   1.199   1.199   1.199   1.199   1.199   1.199   1.199   1.199   1.199   1.199   1.199   1.199   1.199   1.199   1.199   1.199   1.199   1.199   1.199   1.199   1.199   1.199   1.199   1.199   1.199   1.199   1.199   1.199   1.199   1.199   1.199   1.199   1.199   1.199   1.199   1.199   1.199   1.199   1.199   1.199   1.199   1.199   1.199   1.199   1.199   1.199   1.199   1.199   1.199   1.199   1.199   1.199   1.199   1.199   1.199   1.199   1.199   1.199   1.199   1.199   1.199   1.199   1.199   1.199   1.199   1.199   1.199   1.199   1.199   1.199   1.199   1.199   1.199   1.199   1.199   1.199   1.199   1.199   1.199   1.199   1.199   1.199   1.199   1.199   1.199   1.199   1.199   1.199   1.199   1.199   1.199   1.199   1.199   1.199   1.199   1.199   1.199   1.199   1.199   1.199   1.199   1.199   1.199   1.199   1.199   1.199   1.199   1.199   1.199   1.199   1.199   1.199   1.199   1.199   1.199   1.199   1.199   1.199   1.199   1.199   1.199   1.199   1.199   1.199   1.199   1.199   1.199   1.199   1.199   1.199   1.199   1.199   1.199   1.199   1.199   1.199   1.199   1.199   1.199   1.199   1.199   1.199   1.199   1.199   1.199   1.199   1.199   1.199   1.199   1.199   1.199   1.199   1.199   1.199   1.199   1.199   1.199   1.199   1.199   1.199   1.199   1.199   1.199   1.199   1.199   1.199   1.199   1.199   1.199   1.199   1.199   1.199   1.199   1.199   1.199   1.199   1.199
   206.90    1.199   1.199   1.199   1.199   1.199   1.199   1.199   1.199   1.199   1.199   1.199   1.199   1.199   1.199   1.199   1.199   1.199   1.199   1.199   1.199   1.199   1.199   1.199   1.199   1.199   1.199   1.199   1.199   1.199   1.199   1.199   1.199   1.199   1.199   1.199   1.199   1.199   1.199   1.199   1.199   1.199   1.199   1.199   1.199   1.199   1.199   1.199   1.199   1.199   1.199   1.199   1.199   1.199   1.199   1.199   1.199   1.199   1.199   1.199   1.199   1.199   1.199   1.199   1.199   1.199   1.199   1.199   1.199   1.199   1.199   1.199   1.199   1.199   1.199   1.199   1.199   1.199   1.199   1.199   1.199   1.199   1.199   1.199   1.199   1.199   1.199   1.199   1.199   1.199   1.199   1.199   1.199   1.199   1.199   1.199   1.199   1.199   1.199   1.199   1.199   1.199   1.199   1.199   1.199   1.199   1.199   1.199   1.199   1.199   1.199   1.199   1.199   1.199   1.199   1.199   1.199   1.199   1.199   1.199   1.199   1.199   1.199   1.199   1.199   1.199   1.199   1.199   1.199   1.199   1.199   1.199   1.199   1.199   1.199   1.199   1.199   1.199   1.199   1.199   1.199   1.199   1.199   1.199   1.199   1.199   1.199   1.199   1.199   1.199   1.199   1.199   1.199   1.199   1.199   1.199   1.199   1.199   1.199   1.199   1.199   1.199   1.199   1.199   1.199   1.199   1.199   1.199   1.199   1.199   1.199   1.199   1.199   1.199   1.199   1.199   1.199   1.199   1.199   1.199   1.199   1.199   1.199   1.199   1.199   1.199   1.199   1.199   1.199   1.199   1.199   1.199   1.199   1.199   1.199   1.199   1.199   1.199   1.199   1.199   1.199
   196.55    1.199   1.199   1.199   1.199   1.199   1.199   1.199   1.199   1.199   1.199   1.199   1.199   1.199   1.199   1.199   1.199   1.199   1.199   1.199   1.199   1.199   1.199   1.199   1.199   1.199   1.199   1.199   1.199   1.199   1.199   1.199   1.199   1.199   1.199   1.199   1.199   1.199   1.199   1.199   1.199   1.199   1.199   1.199   1.199   1.199   1.199   1.199   1.199   1.199   1.199   1.199   1.199   1.199   1.199   1.199   1.199   1.199   1.199   1.199   1.199   1.199   1.199   1.199   1.199   1.199   1.199   1.199   1.199   1.199   1.199   1.199   1.199   1.199   1.199   1.199   1.199   1.199   1.199   1.199   1.199   1.199   1.199   1.199   1.199   1.199   1.199   1.199   1.199   1.199   1.199   1.199   1.199   1.199   1.199   1.199   1.199   1.199   1.199   1.199   1.199   1.199   1.199   1.199   1.199   1.199   1.199   1.199   1.199   1.199   1.199   1.199   1.199   1.199   1.199   1.199   1.199   1.199   1.199   1.199   1.199   1.199   1.199   1.199   1.199   1.199   1.199   1.199   1.199   1.199   1.199   1.199   1.199   1.199   1.199   1.199   1.199   1.199   1.199   1.199   1.199   1.199   1.199   1.199   1.199   1.199   1.199   1.199   1.199   1.199   1.199   1.199   1.199   1.199   1.199   1.199   1.199   1.199   1.199   1.199   1.199   1.199   1.199   1.199   1.199   1.199   1.199   1.199   1.199   1.199   1.199   1.199   1.199   1.199   1.199   1.199   1.199   1.199   1.199   1.199   1.199   1.199   1.199   1.199   1.199   1.199   1.199   1.199   1.199   1.199   1.199   1.199   1.199   1.199   1.199   1.199   1.199   1.199   1.199   1.199   1.199
   186.21    1.199   1.199   1.199   1.199   1.199   1.199   1.199   1.199   1.199   1.199   1.199   1.199   1.199   1.199   1.199   1.199   1.199   1.199   1.199   1.199   1.199   1.199   1.199   1.199   1.199   1.199   1.199   1.199   1.199   1.199   1.199   1.199   1.199   1.199   1.199   1.199   1.199   1.199   1.199   1.199   1.199   1.199   1.199   1.199   1.199   1.199   1.199   1.199   1.199   1.199   1.199   1.199   1.199   1.199   1.199   1.199   1.199   1.199   1.199   1.199   1.199   1.199   1.199   1.199   1.199   1.199   1.199   1.199   1.199   1.199   1.199   1.199   1.199   1.199   1.199   1.199   1.199   1.199   1.199   1.199   1.199   1.199   1.199   1.199   1.199   1.199   1.199   1.199   1.199   1.199   1.199   1.199   1.199   1.199   1.199   1.199   1.199   1.199   1.199   1.199   1.199   1.199   1.199   1.199   1.199   1.199   1.199   1.199   1.199   1.199   1.199   1.199   1.199   1.199   1.199   1.199   1.199   1.199   1.199   1.199   1.199   1.199   1.199   1.199   1.199   1.199   1.199   1.199   1.199   1.199   1.199   1.199   1.199   1.199   1.199   1.199   1.199   1.199   1.199   1.199   1.199   1.199   1.199   1.199   1.199   1.199   1.199   1.199   1.199   1.199   1.199   1.199   1.199   1.199   1.199   1.199   1.199   1.199   1.199   1.199   1.199   1.199   1.199   1.199   1.199   1.199   1.199   1.199   1.199   1.199   1.199   1.199   1.199   1.199   1.199   1.199   1.199   1.199   1.199   1.199   1.199   1.199   1.199   1.199   1.199   1.199   1.199   1.199   1.199   1.199   1.199   1.199   1.199   1.199   1.199   1.199   1.199   1.199   1.199   1.199
[...]
   113.79    0.781   0.781   0.781   0.781   0.781   0.781   0.781   0.781   0.781   0.781   0.781   0.781   0.781   0.781   0.781   0.781   0.781   0.781   0.781   0.781   0.781   0.781   0.781   0.781   0.781   0.781   0.781   0.781   0.781   0.781   0.781   0.781   0.781   0.781   0.781   0.781   0.781   0.781   0.781   0.781   0.781   0.781   0.781   0.781   0.781   0.781   0.781   0.781   0.781   0.781   0.781   0.781   0.781   0.781   0.781   0.781   0.781   0.781   0.781   0.781   0.781   0.781   0.781   0.781   0.781   0.781   0.781   0.781   0.781   0.781   0.781   0.781   0.781   0.781   0.781   0.781   0.781   0.781   0.781   0.781   0.781   0.781   0.781   0.781   0.781   0.781   0.781   0.781   0.781   0.781   0.781   0.781   0.781   0.781   0.781   0.781   0.781   0.781   0.781   0.781   0.781   0.781   0.781   0.781   0.781   0.781   0.781   0.781   0.781   0.781   0.781   0.781   0.781   0.781   0.781   0.781   0.781   0.781   0.781   0.781   0.781   0.781   0.781   0.781   0.781   0.781   0.781   0.781   0.781   0.781   0.781   0.781   0.781   0.781   0.781   0.781   0.781   0.781   0.781   0.781   0.781   0.781   0.781   0.781   0.781   0.781   0.781   0.781   0.781   0.781   0.781   0.781   0.781   0.781   0.781   0.781   0.781   0.781   0.781   0.781   0.781   0.781   0.781   0.781   0.781   0.781   0.781   0.781   0.781   0.781   0.781   0.781   0.781   0.781   0.781   0.781   0.781   0.781   0.781   0.781   0.781   0.781   0.781   0.781   0.781   0.781   0.781   0.781   0.781   0.781   0.781   0.781   0.781   0.781   0.781   0.781   0.781   0.781   0.781   0.781
   103.45    0.781   0.781   0.781   0.781   0.781   0.781   0.781   0.781   0.781   0.781   0.781   0.781   0.781   0.781   0.781   0.781   0.781   0.781   0.781   0.781   0.781   0.781   0.781   0.781   0.781   0.781   0.781   0.781   0.781   0.781   0.781   0.781   0.781   0.781   0.781   0.781   0.781   0.781   0.781   0.781   0.781   0.781   0.781   0.781   0.781   0.781   0.781   0.781   0.781   0.781   0.781   0.781   0.781   0.781   0.781   0.781   0.781   0.781   0.781   0.781   0.781   0.781   0.781   0.781   0.781   0.781   0.781   0.781   0.781   0.781   0.781   0.781   0.781   0.781   0.781   0.781   0.781   0.781   0.781   0.781   0.781   0.781   0.781   0.781   0.781   0.781   0.781   0.781   0.781   0.781   0.781   0.781   0.781   0.781   0.781   0.781   0.781   0.781   0.781   0.781   0.781   0.781   0.781   0.781   0.781   0.781   0.781   0.781   0.781   0.781   0.781   0.781   0.781   0.781   0.781   0.781   0.781   0.781   0.781   0.781   0.781   0.781   0.781   0.781   0.781   0.781   0.781   0.781   0.781   0.781   0.781   0.781   0.781   0.781   0.781   0.781   0.781   0.781   0.781   0.781   0.781   0.781   0.781   0.781   0.781   0.781   0.781   0.781   0.781   0.781   0.781   0.781   0.781   0.781   0.781   0.781   0.781   0.781   0.781   0.781   0.781   0.781   0.781   0.781   0.781   0.781   0.781   0.781   0.781   0.781   0.781   0.781   0.781   0.781   0.781   0.781   0.781   0.781   0.781   0.781   0.781   0.781   0.781   0.781   0.781   0.781   0.781   0.781   0.781   0.781   0.781   0.781   0.781   0.781   0.781   0.781   0.781   0.781   0.781   0.781
    93.10    0.781   0.781   0.781   0.781   0.781   0.781   0.781   0.781   0.781   0.781   0.781   0.781   0.781   0.781   0.781   0.781   0.781   0.781   0.781   0.781   0.781   0.781   0.781   0.781   0.781   0.781   0.781   0.781   0.781   0.781   0.781   0.781   0.781   0.781   0.781   0.781   0.781   0.781   0.781   0.781   0.781   0.781   0.781   0.781   0.781   0.781   0.781   0.781   0.781   0.781   0.781   0.781   0.781   0.781   0.781   0.781   0.781   0.781   0.781   0.781   0.781   0.781   0.781   0.781   0.781   0.781   0.781   0.781   0.781   0.781   0.781   0.781   0.781   0.781   0.781   0.781   0.781   0.781   0.781   0.781   0.781   0.781   0.781   0.781   0.781   0.781   0.781   0.781   0.781   0.781   0.781   0.781   0.781   0.781   0.781   0.781   0.781   0.781   0.781   0.781   0.781   0.781   0.781   0.781   0.781   0.781   0.781   0.781   0.781   0.781   0.781   0.781   0.781   0.781   0.781   0.781   0.781   0.781   0.781   0.781   0.781   0.781   0.781   0.781   0.781   0.781   0.781   0.781   0.781   0.781   0.781   0.781   0.781   0.781   0.781   0.781   0.781   0.781   0.781   0.781   0.781   0.781   0.781   0.781   0.781   0.781   0.781   0.781   0.781   0.781   0.781   0.781   0.781   0.781   0.781   0.781   0.781   0.781   0.781   0.781   0.781   0.781   0.781   0.781   0.781   0.781   0.781   0.781   0.781   0.781   0.781   0.781   0.781   0.781   0.781   0.781   0.781   0.781   0.781   0.781   0.781   0.781   0.781   0.781   0.781   0.781   0.781   0.781   0.781   0.781   0.781   0.781   0.781   0.781   0.781   0.781   0.781   0.781   0.781   0.781
    82.76    0.781   0.781   0.781   0.781   0.781   0.781   0.781   0.781   0.781   0.781   0.781   0.781   0.781   0.781   0.781   0.781   0.781   0.781   0.781   0.781   0.781   0.781   0.781   0.781   0.781   0.781   0.781   0.781   0.781   0.781   0.781   0.781   0.781   0.781   0.781   0.781   0.781   0.781   0.781   0.781   0.781   0.781   0.781   0.781   0.781   0.781   0.781   0.781   0.781   0.781   0.781   0.781   0.781   0.781   0.781   0.781   0.781   0.781   0.781   0.781   0.781   0.781   0.781   0.781   0.781   0.781   0.781   0.781   0.781   0.781   0.781   0.781   0.781   0.781   0.781   0.781   0.781   0.781   0.781   0.781   0.781   0.781   0.781   0.781   0.781   0.781   0.781   0.781   0.781   0.781   0.781   0.781   0.781   0.781   0.781   0.781   0.781   0.781   0.781   0.781   0.781   0.781   0.781   0.781   0.781   0.781   0.781   0.781   0.781   0.781   0.781   0.781   0.781   0.781   0.781   0.781   0.781   0.781   0.781   0.781   0.781   0.781   0.781   0.781   0.781   0.781   0.781   0.781   0.781   0.781   0.781   0.781   0.781   0.781   0.781   0.781   0.781   0.781   0.781   0.781   0.781   0.781   0.781   0.781   0.781   0.781   0.781   0.781   0.781   0.781   0.781   0.781   0.781   0.781   0.781   0.781   0.781   0.781   0.781   0.781   0.781   0.781   0.781   0.781   0.781   0.781   0.781   0.781   0.781   0.781   0.781   0.781   0.781   0.781   0.781   0.781   0.781   0.781   0.781   0.781   0.781   0.781   0.781   0.781   0.781   0.781   0.781   0.781   0.781   0.781   0.781   0.781   0.781   0.781   0.781   0.781   0.781   0.781   0.781   0.781
    72.41    0.781   0.781   0.781   0.781   0.781   0.781   0.781   0.781   0.781   0.781   0.781   0.781   0.781   0.781   0.781   0.781   0.781   0.781   0.781   0.781   0.781   0.781   0.781   0.781   0.781   0.781   0.781   0.781   0.781   0.781   0.781   0.781   0.781   0.781   0.781   0.781   0.781   0.781   0.781   0.781   0.781   0.781   0.781   0.781   0.781   0.781   0.781   0.781   0.781   0.781   0.781   0.781   0.781   0.781   0.781   0.781   0.781   0.781   0.781   0.781   0.781   0.781   0.781   0.781   0.781   0.781   0.781   0.781   0.781   0.781   0.781   0.781   0.781   0.781   0.781   0.781   0.781   0.781   0.781   0.781   0.781   0.781   0.781   0.781   0.781   0.781   0.781   0.781   0.781   0.781   0.781   0.781   0.781   0.781   0.781   0.781   0.781   0.781   0.781   0.781   0.781   0.781   0.781   0.781   0.781   0.781   0.781   0.781   0.781   0.781   0.781   0.781   0.781   0.781   0.781   0.781   0.781   0.781   0.781   0.781   0.781   0.781   0.781   0.781   0.781   0.781   0.781   0.781   0.781   0.781   0.781   0.781   0.781   0.781   0.781   0.781   0.781   0.781   0.781   0.781   0.781   0.781   0.781   0.781   0.781   0.781   0.781   0.781   0.781   0.781   0.781   0.781   0.781   0.781   0.781   0.781   0.781   0.781   0.781   0.781   0.781   0.781   0.781   0.781   0.781   0.781   0.781   0.781   0.781   0.781   0.781   0.781   0.781   0.781   0.781   0.781   0.781   0.781   0.781   0.781   0.781   0.781   0.781   0.781   0.781   0.781   0.781   0.781   0.781   0.781   0.781   0.781   0.781   0.781   0.781   0.781   0.781   0.781   0.781   0.781
    62.07    0.781   0.781   0.781   0.781   0.781   0.781   0.781   0.781   0.781   0.781   0.781   0.781   0.781   0.781   0.781   0.781   0.781   0.781   0.781   0.781   0.781   0.781   0.781   0.781   0.781   0.781   0.781   0.781   0.781   0.781   0.781   0.781   0.781   0.781   0.781   0.781   0.781   0.781   0.781   0.781   0.781   0.781   0.781   0.781   0.781   0.781   0.781   0.781   0.781   0.781   0.781   0.781   0.781   0.781   0.781   0.781   0.781   0.781   0.781   0.781   0.781   0.781   0.781   0.781   0.781   0.781   0.781   0.781   0.781   0.781   0.781   0.781   0.781   0.781   0.781   0.781   0.781   0.781   0.781   0.781   0.781   0.781   0.781   0.781   0.781   0.781   0.781   0.781   0.781   0.781   0.781   0.781   0.781   0.781   0.781   0.781   0.781   0.781   0.781   0.781   0.781   0.781   0.781   0.781   0.781   0.781   0.781   0.781   0.781   0.781   0.781   0.781   0.781   0.781   0.781   0.781   0.781   0.781   0.781   0.781   0.781   0.781   0.781   0.781   0.781   0.781   0.781   0.781   0.781   0.781   0.781   0.781   0.781   0.781   0.781   0.781   0.781   0.781   0.781   0.781   0.781   0.781   0.781   0.781   0.781   0.781   0.781   0.781   0.781   0.781   0.781   0.781   0.781   0.781   0.781   0.781   0.781   0.781   0.781   0.781   0.781   0.781   0.781   0.781   0.781   0.781   0.781   0.781   0.781   0.781   0.781   0.781   0.781   0.781   0.781   0.781   0.781   0.781   0.781   0.781   0.781   0.781   0.781   0.781   0.781   0.781   0.781   0.781   0.781   0.781   0.781   0.781   0.781   0.781   0.781   0.781   0.781   0.781   0.781   0.781
    51.72    0.781   0.781   0.781   0.781   0.781   0.781   0.781   0.781   0.781   0.781   0.781   0.781   0.781   0.781   0.781   0.781   0.781   0.781   0.781   0.781   0.781   0.781   0.781   0.781   0.781   0.781   0.781   0.781   0.781   0.781   0.781   0.781   0.781   0.781   0.781   0.781   0.781   0.781   0.781   0.781   0.781   0.781   0.781   0.781   0.781   0.781   0.781   0.781   0.781   0.781   0.781   0.781   0.781   0.781   0.781   0.781   0.781   0.781   0.781   0.781   0.781   0.781   0.781   0.781   0.781   0.781   0.781   0.781   0.781   0.781   0.781   0.781   0.781   0.781   0.781   0.781   0.781   0.781   0.781   0.781   0.781   0.781   0.781   0.781   0.781   0.781   0.781   0.781   0.781   0.781   0.781   0.781   0.781   0.781   0.781   0.781   0.781   0.781   0.781   0.781   0.781   0.781   0.781   0.781   0.781   0.781   0.781   0.781   0.781   0.781   0.781   0.781   0.781   0.781   0.781   0.781   0.781   0.781   0.781   0.781   0.781   0.781   0.781   0.781   0.781   0.781   0.781   0.781   0.781   0.781   0.781   0.781   0.781   0.781   0.781   0.781   0.781   0.781   0.781   0.781   0.781   0.781   0.781   0.781   0.781   0.781   0.781   0.781   0.781   0.781   0.781   0.781   0.781   0.781   0.781   0.781   0.781   0.781   0.781   0.781   0.781   0.781   0.781   0.781   0.781   0.781   0.781   0.781   0.781   0.781   0.781   0.781   0.781   0.781   0.781   0.781   0.781   0.781   0.781   0.781   0.781   0.781   0.781   0.781   0.781   0.781   0.781   0.781   0.781   0.781   0.781   0.781   0.781   0.781   0.781   0.781   0.781   0.781   0.781   0.781
    41.38    0.781   0.781   0.781   0.781   0.781   0.781   0.781   0.781   0.781   0.781   0.781   0.781   0.781   0.781   0.781   0.781   0.781   0.781   0.781   0.781   0.781   0.781   0.781   0.781   0.781   0.781   0.781   0.781   0.781   0.781   0.781   0.781   0.781   0.781   0.781   0.781   0.781   0.781   0.781   0.781   0.781   0.781   0.781   0.781   0.781   0.781   0.781   0.781   0.781   0.781   0.781   0.781   0.781   0.781   0.781   0.781   0.781   0.781   0.781   0.781   0.781   0.781   0.781   0.781   0.781   0.781   0.781   0.781   0.781   0.781   0.781   0.781   0.781   0.781   0.781   0.781   0.781   0.781   0.781   0.781   0.781   0.781   0.781   0.781   0.781   0.781   0.781   0.781   0.781   0.781   0.781   0.781   0.781   0.781   0.781   0.781   0.781   0.781   0.781   0.781   0.781   0.781   0.781   0.781   0.781   0.781   0.781   0.781   0.781   0.781   0.781   0.781   0.781   0.781   0.781   0.781   0.781   0.781   0.781   0.781   0.781   0.781   0.781   0.781   0.781   0.781   0.781   0.781   0.781   0.781   0.781   0.781   0.781   0.781   0.781   0.781   0.781   0.781   0.781   0.781   0.781   0.781   0.781   0.781   0.781   0.781   0.781   0.781   0.781   0.781   0.781   0.781   0.781   0.781   0.781   0.781   0.781   0.781   0.781   0.781   0.781   0.781   0.781   0.781   0.781   0.781   0.781   0.781   0.781   0.781   0.781   0.781   0.781   0.781   0.781   0.781   0.781   0.781   0.781   0.781   0.781   0.781   0.781   0.781   0.781   0.781   0.781   0.781   0.781   0.781   0.781   0.781   0.781   0.781   0.781   0.781   0.781   0.781   0.781   0.781
    31.03    0.781   0.781   0.781   0.781   0.781   0.781   0.781   0.781   0.781   0.781   0.781   0.781   0.781   0.781   0.781   0.781   0.781   0.781   0.781   0.781   0.781   0.781   0.781   0.781   0.781   0.781   0.781   0.781   0.781   0.781   0.781   0.781   0.781   0.781   0.781   0.781   0.781   0.781   0.781   0.781   0.781   0.781   0.781   0.781   0.781   0.781   0.781   0.781   0.781   0.781   0.781   0.781   0.781   0.781   0.781   0.781   0.781   0.781   0.781   0.781   0.781   0.781   0.781   0.781   0.781   0.781   0.781   0.781   0.781   0.781   0.781   0.781   0.781   0.781   0.781   0.781   0.781   0.781   0.781   0.781   0.781   0.781   0.781   0.781   0.781   0.781   0.781   0.781   0.781   0.781   0.781   0.781   0.781   0.781   0.781   0.781   0.781   0.781   0.781   0.781   0.781   0.781   0.781   0.781   0.781   0.781   0.781   0.781   0.781   0.781   0.781   0.781   0.781   0.781   0.781   0.781   0.781   0.781   0.781   0.781   0.781   0.781   0.781   0.781   0.781   0.781   0.781   0.781   0.781   0.781   0.781   0.781   0.781   0.781   0.781   0.781   0.781   0.781   0.781   0.781   0.781   0.781   0.781   0.781   0.781   0.781   0.781   0.781   0.781   0.781   0.781   0.781   0.781   0.781   0.781   0.781   0.781   0.781   0.781   0.781   0.781   0.781   0.781   0.781   0.781   0.781   0.781   0.781   0.781   0.781   0.781   0.781   0.781   0.781   0.781   0.781   0.781   0.781   0.781   0.781   0.781   0.781   0.781   0.781   0.781   0.781   0.781   0.781   0.781   0.781   0.781   0.781   0.781   0.781   0.781   0.781   0.781   0.781   0.781   0.781
    20.69    0.781   0.781   0.781   0.781   0.781   0.781   0.781   0.781   0.781   0.781   0.781   0.781   0.781   0.781   0.781   0.781   0.781   0.781   0.781   0.781   0.781   0.781   0.781   0.781   0.781   0.781   0.781   0.781   0.781   0.781   0.781   0.781   0.781   0.781   0.781   0.781   0.781   0.781   0.781   0.781   0.781   0.781   0.781   0.781   0.781   0.781   0.781   0.781   0.781   0.781   0.781   0.781   0.781   0.781   0.781   0.781   0.781   0.781   0.781   0.781   0.781   0.781   0.781   0.781   0.781   0.781   0.781   0.781   0.781   0.781   0.781   0.781   0.781   0.781   0.781   0.781   0.781   0.781   0.781   0.781   0.781   0.781   0.781   0.781   0.781   0.781   0.781   0.781   0.781   0.781   0.781   0.781   0.781   0.781   0.781   0.781   0.781   0.781   0.781   0.781   0.781   0.781   0.781   0.781   0.781   0.781   0.781   0.781   0.781   0.781   0.781   0.781   0.781   0.781   0.781   0.781   0.781   0.781   0.781   0.781   0.781   0.781   0.781   0.781   0.781   0.781   0.781   0.781   0.781   0.781   0.781   0.781   0.781   0.781   0.781   0.781   0.781   0.781   0.781   0.781   0.781   0.781   0.781   0.781   0.781   0.781   0.781   0.781   0.781   0.781   0.781   0.781   0.781   0.781   0.781   0.781   0.781   0.781   0.781   0.781   0.781   0.781   0.781   0.781   0.781   0.781   0.781   0.781   0.781   0.781   0.781   0.781   0.781   0.781   0.781   0.781   0.781   0.781   0.781   0.781   0.781   0.781   0.781   0.781   0.781   0.781   0.781   0.781   0.781   0.781   0.781   0.781   0.781   0.781   0.781   0.781   0.781   0.781   0.781   0.781
    10.34    0.781   0.781   0.781   0.781   0.781   0.781   0.781   0.781   0.781   0.781   0.781   0.781   0.781   0.781   0.781   0.781   0.781   0.781   0.781   0.781   0.781   0.781   0.781   0.781   0.781   0.781   0.781   0.781   0.781   0.781   0.781   0.781   0.781   0.781   0.781   0.781   0.781   0.781   0.781   0.781   0.781   0.781   0.781   0.781   0.781   0.781   0.781   0.781   0.781   0.781   0.781   0.781   0.781   0.781   0.781   0.781   0.781   0.781   0.781   0.781   0.781   0.781   0.781   0.781   0.781   0.781   0.781   0.781   0.781   0.781   0.781   0.781   0.781   0.781   0.781   0.781   0.781   0.781   0.781   0.781   0.781   0.781   0.781   0.781   0.781   0.781   0.781   0.781   0.781   0.781   0.781   0.781   0.781   0.781   0.781   0.781   0.781   0.781   0.781   0.781   0.781   0.781   0.781   0.781   0.781   0.781   0.781   0.781   0.781   0.781   0.781   0.781   0.781   0.781   0.781   0.781   0.781   0.781   0.781   0.781   0.781   0.781   0.781   0.781   0.781   0.781   0.781   0.781   0.781   0.781   0.781   0.781   0.781   0.781   0.781   0.781   0.781   0.781   0.781   0.781   0.781   0.781   0.781   0.781   0.781   0.781   0.781   0.781   0.781   0.781   0.781   0.781   0.781   0.781   0.781   0.781   0.781   0.781   0.781   0.781   0.781   0.781   0.781   0.781   0.781   0.781   0.781   0.781   0.781   0.781   0.781   0.781   0.781   0.781   0.781   0.781   0.781   0.781   0.781   0.781   0.781   0.781   0.781   0.781   0.781   0.781   0.781   0.781   0.781   0.781   0.781   0.781   0.781   0.781   0.781   0.781   0.781   0.781   0.781   0.781
     0.00    0.781   0.781   0.781   0.781   0.781   0.781   0.781   0.781   0.781   0.781   0.781   0.781   0.781   0.781   0.781   0.781   0.781   0.781   0.781   0.781   0.781   0.781   0.781   0.781   0.781   0.781   0.781   0.781   0.781   0.781   0.781   0.781   0.781   0.781   0.781   0.781   0.781   0.781   0.781   0.781   0.781   0.781   0.781   0.781   0.781   0.781   0.781   0.781   0.781   0.781   0.781   0.781   0.781   0.781   0.781   0.781   0.781   0.781   0.781   0.781   0.781   0.781   0.781   0.781   0.781   0.781   0.781   0.781   0.781   0.781   0.781   0.781   0.781   0.781   0.781   0.781   0.781   0.781   0.781   0.781   0.781   0.781   0.781   0.781   0.781   0.781   0.781   0.781   0.781   0.781   0.781   0.781   0.781   0.781   0.781   0.781   0.781   0.781   0.781   0.781   0.781   0.781   0.781   0.781   0.781   0.781   0.781   0.781   0.781   0.781   0.781   0.781   0.781   0.781   0.781   0.781   0.781   0.781   0.781   0.781   0.781   0.781   0.781   0.781   0.781   0.781   0.781   0.781   0.781   0.781   0.781   0.781   0.781   0.781   0.781   0.781   0.781   0.781   0.781   0.781   0.781   0.781   0.781   0.781   0.781   0.781   0.781   0.781   0.781   0.781   0.781   0.781   0.781   0.781   0.781   0.781   0.781   0.781   0.781   0.781   0.781   0.781   0.781   0.781   0.781   0.781   0.781   0.781   0.781   0.781   0.781   0.781   0.781   0.781   0.781   0.781   0.781   0.781   0.781   0.781   0.781   0.781   0.781   0.781   0.781   0.781   0.781   0.781   0.781   0.781   0.781   0.781   0.781   0.781   0.781   0.781   0.781   0.781   0.781   0.781

   Mean standard deviation across all grid points:
      u component:    1.221 m/s
      v component:    1.199 m/s
      w component:    0.781 m/s


U-component (X) statistics from the interpolated hub point:

   Mean =   7.6768 m/s
   TI   =  11.7767 %


Processing complete.  53.141 CPU seconds used.
