
This summary file was generated by TurbSim (from OpenFAST-v4.2.0) on 17-Mar-2026 at 16:27:39.


Runtime Options:

 919494508  Random seed #1
    RANLUX  Type of random number generator
         F  Output binary HH turbulence parameters?
         F  Output formatted turbulence parameters?
         F  Output AeroDyn HH files?
         T  Output AeroDyn FF files?
         F  Output BLADED FF files?
         F  Output tower data?
         F  Output HAWC FF files?
         T  Output formatted FF files?
         F  Output coherent turbulence time step file?
 0 -  NONE  IEC turbulence models scaled to exact specified standard deviation


Turbine/Model Specifications:

        30  Vertical grid-point matrix dimension
       200  Horizontal grid-point matrix dimension
     1.000  Time step [seconds]
    90.000  Analysis time [seconds]
    90.000  Usable output time [seconds]
   150.000  Hub height [m]
   300.000  Grid height [m]
  2000.000  Grid width [m]
     0.000  Vertical flow angle [degrees]
     8.000  Horizontal flow angle [degrees]


Meteorological Boundary Conditions:

    IECKAI  IEC Kaimal spectral model
         1  IEC standard: IEC 61400-1 Ed. 3: 2005
         A  IEC turbulence characteristic
       NTM  IEC Normal Turbulence Model
       N/A  IEC Extreme Turbulence Model (ETM) "c" parameter [m/s]
       PL   Wind profile type
    90.000  Reference height [m]
     7.000  Reference wind speed [m/s]
       N/A  Jet height [m]
     0.200  Power law exponent
     0.030  Surface roughness length [m]


Non-IEC Meteorological Boundary Conditions:

       N/A  Site latitude [degrees]
       N/A  Gradient Richardson number
       N/A  Friction or shear velocity [m/s]
       N/A  Mixing layer depth [m]
       N/A  Mean hub u'w' Reynolds stress
       N/A  Mean hub u'v' Reynolds stress
       N/A  Mean hub v'w' Reynolds stress


Spatial Coherence Models:

       IEC  u-component coherence model
      NONE  v-component coherence model
      NONE  w-component coherence model
(   12.000, 0.353E-03)  u-component coherence parameters
                   N/A  v-component coherence parameters
                   N/A  w-component coherence parameters
       N/A  Coherence exponent


You have requested that the following file(s) be generated:

   Generator_Ambient/TurbSim3.bts (AeroDyn/TurbSim full-field wind file)
   Generator_Ambient/TurbSim3.u (formatted full-field U-component file)
   Generator_Ambient/TurbSim3.v (formatted full-field V-component file)
   Generator_Ambient/TurbSim3.w (formatted full-field W-component file)


Turbulence Simulation Scaling Parameter Summary:

   Turbulence model used                            =  IEC Kaimal
   Turbulence characteristic                        =  A
   IEC turbulence type                              =  Normal Turbulence Model
   IEC standard                                     =  IEC 61400-1 Ed. 3: 2005
   Mean wind speed at hub height                    =    7.753 m/s
   Expected value of turbulence intensity at 15 m/s =   16.000%
   Characteristic value of standard deviation       =    1.826 m/s
   Turbulence scale                                 =   42.000 m
   u-component integral scale                       =  340.200 m
   Coherency scale                                  =  340.200 m
   Characteristic value of hub turbulence intensity =   23.557%
   Gradient Richardson number                       =    0.000

   Wind profile type                                =  Power law
   Power law exponent                               =    0.200
   Mean shear across rotor disk                     =    0.030 (m/s)/m
   Assumed rotor diameter                           =  300.000 m
   Surface roughness length                         =    0.030 m

   Nyquist frequency of turbulent wind field        =    0.500 Hz

   Number of time steps in the FFT                  =       90
   Number of time steps output                      =       90
   Number of points simulated                       =     6001


Mean Flow Angles:

   Vertical   =   0.0 degrees
   Horizontal =   8.0 degrees

Mean Wind Speed Profile:

   Height    Wind Speed   Horizontal Angle  Vertical Angle  U-comp (X)   V-comp (Y)   W-comp (Z)
     (m)        (m/s)         (degrees)       (degrees)       (m/s)        (m/s)        (m/s)   
   ------    ----------   ----------------  --------------  ----------   ----------   ----------
    300.0        8.91            8.00            0.00          8.82         1.24         0.00
    289.7        8.84            8.00            0.00          8.76         1.23         0.00
    279.3        8.78            8.00            0.00          8.69         1.22         0.00
    269.0        8.71            8.00            0.00          8.63         1.21         0.00
    258.6        8.65            8.00            0.00          8.56         1.20         0.00
    248.3        8.58            8.00            0.00          8.49         1.19         0.00
    237.9        8.50            8.00            0.00          8.42         1.18         0.00
    227.6        8.43            8.00            0.00          8.35         1.17         0.00
    217.2        8.35            8.00            0.00          8.27         1.16         0.00
    206.9        8.27            8.00            0.00          8.19         1.15         0.00
    196.6        8.18            8.00            0.00          8.10         1.14         0.00
    186.2        8.10            8.00            0.00          8.02         1.13         0.00
    175.9        8.00            8.00            0.00          7.93         1.11         0.00
    165.5        7.91            8.00            0.00          7.83         1.10         0.00
    155.2        7.81            8.00            0.00          7.73         1.09         0.00
    150.0        7.75            8.00            0.00          7.68         1.08         0.00
    144.8        7.70            8.00            0.00          7.62         1.07         0.00
    134.5        7.59            8.00            0.00          7.51         1.06         0.00
    124.1        7.47            8.00            0.00          7.39         1.04         0.00
    113.8        7.34            8.00            0.00          7.26         1.02         0.00
    103.4        7.20            8.00            0.00          7.13         1.00         0.00
     93.1        7.05            8.00            0.00          6.98         0.98         0.00
     82.8        6.88            8.00            0.00          6.82         0.96         0.00
     72.4        6.70            8.00            0.00          6.64         0.93         0.00
     62.1        6.50            8.00            0.00          6.44         0.90         0.00
     51.7        6.27            8.00            0.00          6.20         0.87         0.00
     41.4        5.99            8.00            0.00          5.93         0.83         0.00
     31.0        5.66            8.00            0.00          5.60         0.79         0.00
     20.7        5.22            8.00            0.00          5.17         0.73         0.00
     10.3        4.54            8.00            0.00          4.50         0.63         0.00
      0.0        0.45            8.00            0.00          0.45         0.06         0.00


Harvested Random Seeds after Generation of the Random Numbers:

      7527380 K 1
            0 K 2


Hub-Height Simulated Turbulence Statistical Summary:

   Type of Wind        Min (m/s)   Mean (m/s)    Max (m/s)  Sigma (m/s)       TI (%)
   ----------------    ---------   ----------    ---------  -----------       ------
   Longitudinal (u)         5.17         7.75        10.81        1.367       17.629
   Lateral (v)             -3.36        -0.00         3.28        1.199       15.470
   Vertical (w)            -1.64         0.00         2.63        0.781       10.068
   U component              4.93         7.68        10.61        1.417       18.457
   V component             -2.16         1.08         4.09        1.140       14.843
   W component             -1.64         0.00         2.63        0.781       10.167
   Horizontal (U&V)         5.31         7.85        10.83        1.317       16.775
   Total                    5.31         7.89        10.91        1.327       16.824

                       Min Reynolds     Mean Reynolds    Max Reynolds    Correlation
   Product             Stress (m/s)^2   Stress (m/s)^2   Stress (m/s)^2  Coefficient
   ----------------    --------------   --------------   --------------  -----------
   u'w'                     -3.263             0.181             6.863         0.170
   u'v'                     -5.746            -0.538             3.913        -0.328
   v'w'                     -4.645            -0.098             3.260        -0.104


   Friction Velocity (Ustar)  =      0.426 m/s
   Maximum Instantaneous TKE  =      7.311 (m/s)^2
   Maximum Instantaneous CTKE =      3.583 (m/s)^2


Grid Point Variance Summary:

   Y-coord-1000.00 -989.95 -979.90 -969.85 -959.80 -949.75 -939.70 -929.65 -919.60 -909.55 -899.50 -889.45 -879.40 -869.35 -859.30 -849.25 -839.20 -829.15 -819.10 -809.05 -798.99 -788.94 -778.89 -768.84 -758.79 -748.74 -738.69 -728.64 -718.59 -708.54 -698.49 -688.44 -678.39 -668.34 -658.29 -648.24 -638.19 -628.14 -618.09 -608.04 -597.99 -587.94 -577.89 -567.84 -557.79 -547.74 -537.69 -527.64 -517.59 -507.54 -497.49 -487.44 -477.39 -467.34 -457.29 -447.24 -437.19 -427.14 -417.09 -407.04 -396.98 -386.93 -376.88 -366.83 -356.78 -346.73 -336.68 -326.63 -316.58 -306.53 -296.48 -286.43 -276.38 -266.33 -256.28 -246.23 -236.18 -226.13 -216.08 -206.03 -195.98 -185.93 -175.88 -165.83 -155.78 -145.73 -135.68 -125.63 -115.58 -105.53  -95.48  -85.43  -75.38  -65.33  -55.28  -45.23  -35.18  -25.13  -15.08   -5.03    5.03   15.08   25.13   35.18   45.23   55.28   65.33   75.38   85.43   95.48  105.53  115.58  125.63  135.68  145.73  155.78  165.83  175.88  185.93  195.98  206.03  216.08  226.13  236.18  246.23  256.28  266.33  276.38  286.43  296.48  306.53  316.58  326.63  336.68  346.73  356.78  366.83  376.88  386.93  396.98  407.04  417.09  427.14  437.19  447.24  457.29  467.34  477.39  487.44  497.49  507.54  517.59  527.64  537.69  547.74  557.79  567.84  577.89  587.94  597.99  608.04  618.09  628.14  638.19  648.24  658.29  668.34  678.39  688.44  698.49  708.54  718.59  728.64  738.69  748.74  758.79  768.84  778.89  788.94  798.99  809.05  819.10  829.15  839.20  849.25  859.30  869.35  879.40  889.45  899.50  909.55  919.60  929.65  939.70  949.75  959.80  969.85  979.90  989.95 1000.00

   Height   Standard deviation at grid points for the u component:
   300.00    1.252   1.313   1.699   1.853   1.617   1.567   1.249   1.480   1.203   1.192   1.211   1.094   0.967   0.964   1.121   1.052   1.281   1.656   1.571   1.443   1.430   1.453   1.171   0.888   1.185   0.976   0.977   1.241   1.179   1.378   1.354   1.769   1.692   1.530   1.716   1.326   1.036   1.326   1.595   0.908   1.002   1.413   1.411   1.523   1.140   0.960   1.365   1.446   1.237   1.270   1.156   1.011   0.892   0.975   1.401   1.643   1.706   2.064   1.872   2.035   2.343   2.324   2.069   1.439   1.426   1.440   1.108   1.007   0.982   0.860   1.026   1.435   1.164   0.898   1.008   1.175   1.257   1.478   1.233   1.501   1.553   1.750   1.803   1.752   1.713   1.754   1.449   1.485   1.044   1.023   1.435   1.429   1.655   1.917   1.445   1.685   1.588   1.236   1.313   1.343   1.429   1.424   1.751   1.684   1.698   1.389   1.313   1.047   1.242   1.224   1.170   0.905   1.063   1.184   1.352   1.195   1.149   1.144   1.382   1.398   1.322   1.481   1.400   1.778   2.043   1.931   1.332   1.374   1.002   1.446   1.301   1.521   1.615   1.294   1.117   0.992   1.193   1.299   1.418   1.378   1.408   1.413   1.199   1.183   1.071   1.093   1.121   0.893   1.130   1.049   1.084   1.122   1.399   1.322   1.214   1.353   1.485   1.093   1.202   1.241   1.440   1.330   1.075   1.135   1.026   0.910   0.856   1.227   1.179   1.453   1.279   1.161   1.240   1.214   1.163   1.045   1.306   1.429   1.393   1.124   1.336   1.305   1.135   1.079   1.009   1.277   1.190   1.063   0.871   1.033   1.433   1.411   1.160   1.006   1.362   1.473   1.217   1.208   1.162   1.384
   289.66    1.182   1.653   1.412   1.671   1.539   1.677   1.727   1.459   1.409   1.302   1.396   1.398   0.983   0.964   0.880   0.845   1.173   1.293   1.149   1.428   1.443   1.302   1.427   1.143   1.124   0.943   1.054   1.006   1.318   1.449   1.409   1.704   1.650   1.977   1.608   1.153   1.415   1.419   1.353   1.026   1.411   1.255   1.338   1.486   1.060   1.197   1.236   1.485   1.256   0.926   1.282   1.038   1.305   1.524   1.163   1.714   1.582   1.856   1.938   2.095   1.973   2.120   1.990   1.805   1.128   1.210   0.812   1.093   1.062   1.071   1.338   1.506   1.320   1.168   0.886   1.078   1.083   1.316   1.299   1.367   1.378   1.245   1.352   1.071   1.273   1.208   1.307   1.253   0.926   1.236   1.493   1.153   1.233   1.736   1.516   1.659   1.523   0.854   0.968   1.203   1.441   1.596   1.697   1.843   1.542   1.218   0.975   1.242   0.960   1.074   0.959   1.199   1.248   1.120   0.985   1.021   1.049   1.178   1.551   1.589   1.837   1.739   1.463   1.880   1.931   1.797   1.692   1.296   1.021   1.257   1.441   1.305   1.450   1.211   0.930   1.019   0.982   1.250   1.305   1.293   1.276   1.109   1.322   1.414   1.009   0.905   1.259   1.079   0.975   0.744   0.815   0.993   1.105   1.244   1.341   1.444   1.256   1.333   1.441   1.276   1.214   1.396   1.213   1.299   1.180   1.037   1.094   1.075   1.333   1.063   0.883   1.063   1.360   0.926   0.924   1.139   1.141   1.100   1.159   1.157   1.072   1.122   0.823   0.934   0.796   1.102   1.159   1.105   0.903   1.163   1.513   1.236   1.238   1.002   1.402   1.704   1.537   1.527   1.448   1.249
   279.31    1.598   1.718   1.867   1.330   1.853   1.487   1.828   1.919   1.875   1.612   1.478   1.226   1.671   1.134   0.828   0.821   0.881   1.194   1.235   1.085   1.112   1.236   1.251   1.156   0.928   0.906   1.041   1.171   1.320   1.079   1.336   1.727   1.692   1.795   1.400   1.476   1.410   1.184   0.818   1.183   1.125   1.425   1.407   1.262   1.388   1.043   0.886   1.013   1.169   1.328   1.150   0.945   1.101   1.307   1.263   1.668   1.873   1.888   1.668   1.922   1.639   1.981   1.886   1.769   1.004   0.988   1.140   0.989   1.170   1.330   1.094   1.343   0.998   1.097   1.102   1.167   1.176   1.010   1.231   1.222   1.248   1.074   1.072   0.882   1.004   1.146   1.170   1.309   1.142   0.860   1.397   1.487   1.887   1.993   1.726   1.397   1.233   1.077   0.879   0.935   1.250   1.268   1.435   1.414   1.525   1.235   1.239   1.198   1.437   0.955   0.992   1.220   1.075   1.151   1.132   0.985   1.420   1.662   1.758   1.923   2.032   1.515   1.554   1.454   1.889   1.434   1.531   1.546   1.305   1.306   1.438   1.204   1.493   1.457   1.321   0.944   1.064   1.386   1.115   1.009   1.194   0.983   1.210   1.179   1.136   0.958   1.271   1.251   1.069   0.850   1.017   1.235   1.623   1.450   1.643   1.293   1.926   1.498   1.681   1.384   1.368   1.157   1.002   1.439   1.071   1.019   0.932   1.174   1.135   1.016   0.969   1.034   1.162   1.037   1.087   1.139   1.434   1.412   1.072   0.952   0.787   1.024   0.923   0.936   0.917   1.001   1.240   1.232   0.993   1.053   1.177   1.126   1.152   1.053   1.219   1.728   1.916   1.591   1.363   0.884
   268.97    1.523   1.466   1.502   1.498   1.874   1.676   1.604   1.829   1.776   1.831   1.580   1.679   1.732   1.482   0.840   1.115   1.062   1.051   1.191   1.058   1.028   1.071   0.894   1.094   0.925   1.082   1.035   1.274   1.334   1.188   1.500   1.645   1.327   1.766   1.917   1.505   1.699   1.390   1.259   1.302   1.181   1.468   1.177   1.338   0.968   1.334   0.963   0.841   1.293   1.112   1.206   1.284   1.097   0.899   1.495   1.893   2.096   1.630   1.558   2.056   2.080   2.245   1.749   1.545   0.933   0.954   1.089   1.106   1.071   1.096   0.825   0.999   1.218   1.079   1.286   1.402   1.383   1.186   0.977   1.260   1.087   0.888   0.840   1.009   1.138   1.176   1.349   1.371   1.294   1.390   1.478   1.582   1.928   2.169   1.795   1.341   1.069   0.929   1.105   1.553   1.213   1.080   1.472   1.689   1.421   1.088   0.829   1.298   1.029   1.288   1.201   1.023   1.117   1.109   1.046   1.112   1.412   1.464   1.307   1.544   1.612   1.409   1.546   1.600   1.876   1.699   1.619   1.465   1.585   1.649   1.231   1.136   1.066   1.349   1.292   1.518   1.143   1.243   0.812   0.985   0.889   0.862   0.928   1.012   1.089   1.150   1.234   0.781   1.050   0.803   1.218   1.450   1.750   1.368   1.491   1.857   2.065   1.611   1.597   1.445   1.246   1.237   1.154   1.439   1.132   1.045   1.242   1.044   0.957   0.913   1.217   1.370   1.255   1.214   0.953   1.409   1.259   1.414   0.879   1.197   0.702   1.015   1.231   0.974   1.077   1.278   1.058   1.153   0.995   0.965   1.021   0.912   0.985   1.068   1.286   1.452   1.507   1.460   1.365   1.264
   258.62    1.383   1.014   1.123   1.395   1.625   1.731   2.070   2.157   1.906   1.952   1.827   1.819   1.622   1.572   0.928   1.145   1.380   1.328   1.147   1.185   1.243   1.051   1.005   1.074   1.144   1.211   1.492   1.674   1.317   1.099   0.957   1.589   1.462   1.458   1.643   1.782   1.559   1.167   1.311   1.105   1.119   1.170   1.075   1.083   1.076   1.385   1.169   1.304   1.129   1.089   1.384   1.083   1.014   1.087   1.574   1.543   1.698   1.653   1.823   1.954   1.989   2.120   2.055   1.812   1.149   1.084   0.909   1.077   0.975   0.921   1.084   0.871   1.031   1.200   1.139   1.324   1.024   1.015   1.023   1.231   1.179   1.081   0.884   0.923   1.108   0.978   1.409   1.401   1.294   1.659   1.981   1.985   1.897   1.935   1.789   1.043   0.944   1.050   1.153   1.435   1.277   1.075   1.447   1.411   1.581   1.421   1.062   1.403   1.358   1.168   0.939   1.058   1.382   0.809   0.875   0.968   0.980   1.152   1.144   1.489   1.562   1.349   1.301   1.286   1.739   1.757   1.601   1.347   1.169   1.713   1.142   1.091   1.026   1.181   1.236   1.674   1.549   1.150   1.049   0.993   1.213   0.976   1.199   1.040   1.236   0.923   0.995   1.082   1.208   0.822   1.154   1.491   1.389   1.279   1.798   1.716   1.589   1.907   1.520   1.837   1.190   1.422   1.156   1.340   1.019   1.042   1.138   1.221   1.116   1.500   1.631   1.531   1.200   0.990   1.314   1.330   1.414   1.326   1.250   1.125   0.872   0.846   0.982   1.078   1.103   1.328   1.037   0.856   0.889   0.989   0.968   0.887   0.956   0.992   1.200   1.312   1.231   1.372   1.333   1.321
   248.28    1.306   1.388   1.321   1.220   1.297   1.932   1.924   1.891   1.685   1.559   1.948   2.145   2.201   1.465   1.047   1.369   1.295   0.939   1.232   1.674   1.882   1.302   1.069   1.181   1.169   1.584   1.685   1.297   1.248   1.413   1.117   1.584   1.881   2.006   1.297   1.698   1.371   1.188   1.259   1.178   0.963   0.907   0.927   1.136   1.390   1.412   1.431   1.409   1.267   1.203   1.302   1.133   1.273   1.361   1.448   1.594   1.586   1.739   1.506   1.574   1.606   1.617   1.716   1.356   1.591   1.220   1.049   0.899   1.023   1.152   1.099   1.359   1.019   0.947   1.093   1.291   1.107   1.128   0.812   1.094   1.118   0.917   0.881   0.971   1.140   0.905   1.281   1.271   1.509   1.701   1.788   1.514   1.527   1.589   1.643   1.103   0.933   1.002   1.157   1.134   1.433   1.603   1.413   1.887   1.308   1.337   1.094   0.935   1.130   1.289   1.032   1.416   1.581   1.058   1.011   1.009   1.083   1.288   1.249   1.368   1.327   1.073   1.301   1.594   1.443   1.943   2.113   1.743   1.776   1.549   1.650   1.492   1.352   1.489   1.620   1.646   1.718   1.511   1.084   1.192   1.573   1.445   1.405   1.054   0.859   1.041   1.089   0.959   1.070   0.887   1.192   1.463   1.598   1.722   1.845   2.084   1.892   2.044   1.668   1.657   1.200   1.448   1.066   1.270   1.364   1.616   1.451   1.069   1.022   1.627   1.485   1.369   1.340   1.196   1.065   1.288   1.054   1.155   1.198   1.071   0.976   0.874   1.111   1.078   1.069   1.302   0.931   0.773   1.044   1.100   1.093   0.967   1.107   1.288   1.191   1.208   1.069   1.165   1.009   1.113
   237.93    1.441   1.100   1.061   1.286   1.546   1.806   1.976   1.873   1.738   1.560   1.528   1.892   1.968   1.639   1.486   1.183   1.183   1.200   1.600   1.702   1.636   1.159   1.373   1.512   1.376   1.536   1.467   0.992   1.027   1.149   1.315   1.421   1.663   1.780   1.608   1.737   1.637   0.988   1.019   1.100   1.130   1.130   1.049   1.093   1.400   1.553   1.162   1.208   1.287   1.082   1.170   1.263   1.114   1.104   1.408   1.088   1.294   1.391   1.156   1.328   1.274   1.218   1.374   1.205   1.301   1.220   1.239   1.101   0.995   1.000   1.128   1.263   1.246   1.143   1.051   1.018   0.881   1.032   0.884   0.935   0.866   0.893   0.962   1.107   1.001   1.191   1.130   1.254   1.361   1.633   1.724   1.513   1.178   1.475   1.350   1.078   1.264   1.406   0.956   0.983   1.359   1.642   1.901   1.818   1.875   0.978   0.930   0.873   0.956   1.058   1.108   1.205   1.095   1.368   1.123   0.767   1.206   1.223   1.335   1.315   1.327   1.285   1.531   1.403   1.663   1.995   1.745   2.231   1.762   1.693   1.151   1.257   1.407   1.537   1.363   1.269   1.200   1.032   1.219   1.192   1.411   1.106   1.179   1.438   1.437   1.022   0.870   0.921   0.896   0.941   0.950   1.729   2.203   2.478   2.094   2.332   1.744   1.547   1.847   1.310   1.426   1.148   1.304   1.214   0.807   1.409   1.526   1.725   1.342   1.651   1.983   1.849   1.152   0.918   1.321   0.964   0.997   1.106   1.257   1.030   0.845   0.936   0.997   1.134   1.215   1.146   1.218   0.980   1.064   1.095   1.243   1.106   1.031   1.018   1.011   1.024   1.129   0.926   1.254   1.113
   227.59    1.170   1.516   1.573   1.513   1.597   1.621   1.602   1.430   1.284   1.436   1.540   1.755   1.739   1.894   1.189   0.851   1.040   1.568   1.722   1.554   1.386   1.350   1.639   1.303   0.921   1.230   1.210   1.231   0.784   0.900   1.266   1.611   1.363   1.832   1.714   1.767   1.481   1.423   1.080   1.121   1.160   1.036   0.958   1.169   1.361   1.154   1.029   1.079   1.097   1.187   0.974   0.964   1.116   1.009   1.334   1.160   1.091   1.124   0.932   0.939   1.094   1.123   1.138   1.207   1.077   1.184   1.118   0.828   1.003   1.123   1.120   0.951   1.257   0.988   1.333   1.199   1.188   0.967   1.166   1.279   0.977   1.221   1.038   0.982   1.019   1.000   1.428   1.313   1.070   1.581   1.248   1.351   1.264   1.617   1.341   1.438   1.183   1.304   1.096   1.303   1.669   1.414   1.659   1.604   1.517   1.177   1.130   0.972   0.960   1.107   1.031   0.896   0.852   1.295   1.229   1.064   1.269   1.550   1.276   1.433   1.249   1.221   1.563   1.480   1.704   1.747   1.784   2.154   2.212   1.698   1.539   1.406   1.152   1.159   1.257   0.979   1.243   1.255   1.266   1.089   0.987   1.158   1.508   1.333   1.196   1.450   1.159   1.209   1.095   1.310   1.580   1.675   2.025   2.209   2.039   2.070   2.217   1.893   1.580   1.553   1.481   1.433   1.117   0.889   0.960   1.369   1.566   1.839   1.407   1.468   1.834   1.598   1.283   1.294   1.006   1.294   1.156   1.295   1.124   0.910   1.306   1.100   0.945   1.072   0.955   1.086   1.202   1.006   0.919   1.197   1.219   1.123   1.093   1.234   1.056   0.869   1.220   1.728   1.266   1.375
   217.24    1.346   1.290   1.517   1.293   1.266   1.408   1.186   1.203   1.286   1.234   1.266   1.299   1.351   1.578   1.363   1.051   1.150   1.648   1.822   2.081   1.713   1.840   1.664   1.451   0.991   1.216   1.105   0.959   1.145   1.225   1.209   1.412   1.428   1.549   1.557   1.726   1.496   1.245   1.275   1.005   0.982   1.038   0.802   1.057   1.053   1.250   1.048   1.117   0.891   0.889   1.035   1.035   1.089   1.289   1.193   1.102   0.978   0.954   0.853   0.921   0.920   1.102   1.282   1.188   1.172   1.115   1.035   1.072   1.081   0.993   0.869   0.887   1.188   1.289   1.529   1.164   1.023   0.935   1.035   1.082   0.909   0.898   0.788   0.918   0.977   1.046   1.301   0.845   1.105   1.383   1.361   1.362   1.361   1.483   1.584   1.158   1.276   1.642   1.625   1.283   1.344   1.461   1.497   1.280   1.115   1.000   1.120   1.178   1.036   0.960   1.035   0.951   0.946   1.039   1.106   1.227   1.420   1.467   1.419   1.517   1.561   1.546   1.642   1.229   1.223   1.517   1.714   1.757   1.692   1.621   1.616   1.800   1.275   1.570   1.669   1.451   1.451   1.661   1.270   1.310   1.291   1.326   1.402   1.534   1.251   1.204   1.224   1.062   1.048   1.030   1.235   1.546   1.468   1.985   2.070   2.104   1.627   1.883   1.798   1.550   1.662   1.289   1.351   1.274   1.401   1.413   1.614   1.466   1.655   1.915   1.943   1.370   1.100   1.298   1.321   1.053   1.266   1.149   1.147   1.120   1.205   1.189   0.930   0.810   0.899   1.018   1.139   1.010   1.318   1.175   0.950   1.240   1.218   0.861   0.812   1.032   1.030   1.377   1.576   1.530
   206.90    1.096   1.294   1.512   1.580   1.215   1.167   1.324   1.298   1.303   1.242   1.022   1.178   1.033   1.309   1.319   1.491   1.664   1.938   2.357   2.000   1.931   1.986   1.558   1.469   1.704   1.608   1.303   1.080   0.963   1.293   1.121   1.194   1.317   1.196   1.219   1.266   1.311   1.257   0.935   1.136   1.163   1.430   1.113   1.138   1.225   1.219   1.201   1.394   1.176   1.409   1.403   1.157   0.881   1.098   1.182   1.081   1.068   0.928   1.004   0.951   0.938   1.029   1.152   1.505   1.253   1.179   0.963   1.048   0.915   1.163   1.075   1.082   1.125   1.132   1.301   1.139   0.750   0.966   0.944   0.852   1.037   0.964   0.954   0.953   0.822   0.948   1.089   1.172   1.058   1.242   1.309   1.370   0.936   1.257   1.276   1.184   1.290   1.226   1.223   1.064   1.295   1.007   1.218   0.975   1.176   1.045   1.137   1.044   1.014   0.891   0.924   1.117   0.856   0.856   1.099   1.439   1.270   1.205   1.377   1.674   1.497   1.453   1.410   1.078   1.154   1.651   1.576   1.303   1.544   1.187   1.283   1.314   1.249   1.449   1.213   1.157   1.733   1.941   1.832   1.316   1.160   1.018   1.019   1.244   1.151   1.371   1.008   1.363   1.400   1.423   1.494   1.190   1.597   2.043   1.777   1.698   1.852   1.968   1.826   1.565   1.576   1.605   1.248   1.556   1.205   1.207   1.452   1.306   1.465   1.618   1.834   1.494   1.225   1.276   1.356   1.429   1.212   0.993   1.231   1.049   1.019   0.786   0.766   0.877   0.921   1.027   1.011   1.081   1.277   0.927   0.851   0.962   0.790   1.036   1.185   1.169   0.926   1.123   1.348   1.271
   196.55    1.024   1.210   1.204   1.476   1.182   1.199   1.265   1.285   0.924   1.067   1.123   0.823   1.232   1.335   1.129   1.536   2.040   2.061   2.183   2.371   2.495   2.379   2.287   1.864   1.548   1.784   1.554   1.520   1.402   1.129   1.116   1.218   0.992   1.148   1.247   1.308   1.279   0.671   0.954   1.385   1.280   1.141   1.408   1.077   1.205   1.292   1.683   1.515   1.799   1.444   1.327   1.027   1.094   0.869   0.990   1.151   0.810   0.963   1.051   1.092   1.118   1.109   1.146   1.370   1.153   0.976   1.190   1.048   1.076   1.098   1.201   1.593   1.866   1.885   1.410   0.970   0.883   0.693   1.132   1.083   1.238   1.236   0.909   0.840   0.821   0.958   1.359   1.129   1.247   1.301   1.272   0.927   0.860   1.048   1.081   1.190   1.255   1.178   1.114   1.231   1.177   1.138   1.231   1.063   1.059   1.057   1.042   1.132   1.057   0.914   0.981   1.173   1.120   1.003   1.203   1.012   1.418   1.590   1.511   1.603   1.502   1.446   1.245   1.490   1.507   1.552   1.518   1.498   1.403   0.882   1.049   1.029   1.163   1.099   1.305   1.381   1.848   1.901   1.462   1.526   1.222   1.276   1.083   1.074   1.401   1.468   1.109   1.266   1.416   1.101   0.971   1.430   1.373   1.806   2.260   2.384   2.007   1.640   1.559   1.773   1.782   1.232   0.953   1.210   1.372   1.425   1.579   1.231   1.357   1.650   1.688   1.720   1.058   0.899   1.273   1.373   1.135   1.198   1.308   1.020   0.993   0.913   1.051   1.125   1.078   1.257   0.930   1.028   1.017   0.975   0.960   1.304   1.285   0.906   0.958   0.966   1.128   1.239   1.129   1.371
   186.21    0.916   1.143   1.323   1.460   1.009   1.146   1.214   1.295   1.416   1.147   0.739   0.941   1.143   1.065   1.090   1.449   1.701   1.992   2.219   2.512   2.347   2.375   2.025   2.200   2.091   1.656   1.613   1.454   1.080   1.123   1.036   1.356   1.104   1.198   1.078   1.005   1.067   0.957   1.106   1.064   1.323   1.159   1.567   1.402   1.545   1.725   1.673   1.521   1.644   1.564   1.148   1.062   1.196   1.052   1.570   1.623   1.323   1.345   1.186   0.982   1.049   1.259   1.214   1.199   1.010   0.931   1.052   0.992   0.862   0.978   1.129   1.337   1.573   1.789   1.533   1.309   1.075   1.286   1.369   1.262   1.211   1.483   1.123   1.295   1.250   1.267   1.687   1.415   1.347   1.620   1.394   1.389   1.330   0.967   1.034   0.937   1.179   1.007   0.893   1.062   1.015   1.202   0.940   1.229   1.124   1.017   1.383   0.983   0.695   0.933   1.196   1.204   0.833   1.000   1.060   1.104   1.346   1.356   1.280   1.338   1.548   1.221   0.997   1.277   1.321   1.075   1.357   1.158   1.153   0.928   1.087   1.003   1.146   0.898   0.965   1.326   1.571   1.511   1.463   1.370   1.364   1.791   1.839   1.424   1.333   1.361   1.140   1.314   1.191   1.303   1.324   1.280   1.655   2.063   2.348   2.279   2.041   1.893   1.745   1.770   1.488   1.138   1.193   1.036   1.197   1.607   1.671   1.302   1.417   1.392   1.495   1.606   1.098   1.101   1.402   1.279   1.098   0.986   0.896   1.150   0.884   0.938   1.054   0.885   0.754   1.370   1.106   1.156   0.916   1.028   1.367   1.432   1.429   1.333   1.227   1.634   1.337   1.311   1.443   1.337
   175.86    0.985   1.050   1.051   1.146   1.410   1.287   1.457   1.678   1.700   1.259   1.111   1.144   1.363   1.011   1.420   1.442   1.408   1.752   1.856   2.204   2.212   1.882   2.275   2.111   2.036   1.917   1.743   1.415   1.157   1.103   1.316   1.226   0.733   0.955   0.963   1.028   1.047   1.161   1.007   0.951   1.362   1.328   1.231   1.485   1.641   1.455   1.255   1.368   1.417   1.161   0.966   1.453   1.601   1.695   1.630   1.273   1.259   1.332   1.450   1.370   1.499   1.161   1.103   1.112   1.235   1.223   1.116   1.148   1.169   0.880   1.127   1.297   1.584   1.384   1.454   1.572   0.915   1.207   1.400   1.198   1.341   1.304   1.186   1.168   1.297   1.466   1.752   2.100   1.728   1.933   1.419   1.219   0.885   1.214   1.233   1.143   1.081   1.166   1.000   1.276   1.354   1.288   1.015   1.025   1.123   0.927   1.163   1.141   1.099   1.054   1.069   1.346   1.341   1.112   1.230   1.383   1.423   1.263   1.096   1.338   1.220   1.269   1.131   0.920   0.995   0.900   1.181   1.529   1.594   1.122   1.127   1.123   1.016   1.222   0.938   1.233   1.478   1.304   1.250   0.945   1.473   1.823   1.825   1.566   1.506   1.270   1.413   1.376   1.498   1.689   1.879   1.934   2.059   2.273   2.301   1.708   1.727   1.719   1.409   1.500   1.496   1.135   1.115   1.089   1.214   1.422   1.772   1.642   1.603   1.280   1.528   1.326   1.230   1.143   1.198   1.328   1.271   0.903   0.767   0.846   1.046   0.877   1.100   1.292   1.187   1.446   1.338   1.810   1.513   1.644   1.569   1.357   1.452   1.368   1.094   1.424   1.499   1.462   1.323   1.201
   165.52    1.448   1.432   1.249   1.323   1.168   1.010   1.466   1.649   1.713   1.530   1.019   0.869   0.787   1.277   1.246   1.654   1.961   1.443   1.398   1.867   2.012   2.171   1.898   2.315   2.045   2.002   1.514   1.613   1.122   1.316   1.144   1.199   1.074   1.205   1.163   1.022   1.019   1.096   0.978   1.091   1.493   1.418   1.466   1.534   1.418   1.084   1.178   1.384   1.598   1.253   1.214   1.460   1.459   1.435   1.257   1.545   1.321   1.510   1.243   1.695   1.535   1.760   1.555   1.401   1.500   1.445   1.055   1.157   0.992   1.181   1.077   1.236   1.396   1.183   1.030   1.276   1.089   1.207   1.092   1.301   1.245   1.031   1.140   1.210   1.427   1.643   1.689   1.929   1.670   1.661   1.652   1.471   1.087   0.994   1.026   1.137   1.089   1.258   1.089   1.150   1.119   1.182   1.132   0.922   1.034   0.929   0.863   0.909   1.069   1.309   1.179   1.301   1.418   1.203   1.238   1.249   1.214   1.366   1.161   1.308   0.892   1.054   0.994   1.077   0.778   1.010   1.142   1.307   1.143   1.145   1.338   1.124   1.062   1.072   1.407   1.366   1.540   1.040   1.260   1.178   1.346   1.764   1.506   1.412   0.989   0.983   1.392   1.353   1.049   1.445   1.865   1.961   1.620   1.888   1.809   1.450   1.638   1.560   1.214   1.529   1.287   1.049   1.264   1.030   1.163   1.470   1.593   1.655   1.401   1.716   1.342   1.570   1.428   1.378   1.108   1.240   1.094   1.264   0.820   1.112   1.002   0.817   0.821   1.072   1.311   1.396   1.811   1.735   1.820   1.117   1.306   1.173   1.445   1.683   1.467   1.200   1.066   1.205   1.208   1.153
   155.17    1.692   1.686   1.234   1.026   1.165   1.475   1.428   1.614   1.483   1.487   1.067   1.023   0.931   1.146   1.474   1.337   1.717   1.875   1.204   1.588   1.691   2.166   1.880   2.101   2.274   1.718   1.386   1.520   1.538   1.175   1.173   1.149   0.911   1.188   1.156   1.084   1.043   1.338   1.180   1.111   1.373   1.557   1.619   1.687   1.464   1.108   0.907   1.077   1.469   1.452   1.604   1.486   1.213   0.924   1.204   1.405   1.489   1.566   1.353   1.672   1.444   1.717   1.702   1.807   1.844   1.358   1.151   0.950   1.093   0.914   1.292   1.066   1.173   1.138   1.056   0.993   1.182   1.186   1.110   1.173   1.166   1.366   1.231   1.090   1.187   1.210   1.361   1.595   1.690   1.588   1.020   1.233   0.894   0.853   0.818   0.760   1.171   1.109   0.912   1.076   1.045   1.267   1.114   0.912   0.896   0.913   1.028   1.169   1.110   1.158   1.234   1.100   1.186   1.191   1.128   1.316   1.310   1.384   1.429   1.073   1.194   0.913   1.347   1.222   1.281   1.268   1.200   1.297   1.405   1.049   1.077   1.118   0.902   1.047   1.217   1.381   1.225   1.011   1.023   1.235   1.484   1.668   1.528   1.433   1.171   0.895   1.310   1.641   1.720   1.421   1.563   1.629   1.229   1.505   1.585   1.308   1.455   1.018   1.110   1.181   1.067   1.052   1.146   1.262   1.377   1.326   1.237   1.555   1.913   1.576   1.810   1.337   1.296   1.356   1.324   1.517   1.533   1.274   0.984   1.039   0.946   1.071   0.888   1.032   1.366   1.858   1.565   1.898   1.690   1.135   1.024   1.300   1.350   1.315   1.354   1.525   1.082   0.994   0.883   1.213
   144.83    1.689   1.857   1.295   1.139   1.659   1.765   1.409   1.676   1.724   1.502   1.102   1.248   1.199   1.340   1.530   1.554   1.517   1.336   1.100   1.474   1.801   2.059   2.144   2.009   2.070   1.706   1.411   1.299   1.069   1.297   1.380   1.663   1.538   1.335   1.288   1.278   1.246   1.196   1.314   1.254   1.434   1.342   1.453   1.561   1.240   1.098   1.220   1.285   1.323   1.242   1.047   1.166   1.215   1.004   1.237   1.298   1.219   1.187   1.319   1.336   1.618   1.541   1.608   1.875   1.770   1.198   1.435   1.204   1.050   1.077   1.263   1.364   0.873   1.116   1.131   1.482   1.112   1.000   0.820   1.046   1.120   0.978   1.194   1.064   1.206   1.367   1.339   1.545   1.359   1.342   1.202   1.020   1.045   1.018   0.769   0.879   1.170   0.778   1.285   1.291   1.349   1.484   1.592   1.296   1.215   1.092   1.005   0.969   0.901   1.220   1.323   1.264   1.379   1.297   1.152   1.088   1.141   1.016   1.030   1.113   1.078   0.868   1.035   0.828   1.336   1.209   1.040   1.325   0.814   1.052   0.906   0.926   1.333   1.229   1.085   1.293   1.152   0.849   0.815   1.157   1.366   1.403   1.377   1.072   1.268   1.212   1.295   1.616   1.607   1.515   1.509   1.441   1.700   1.248   1.399   1.025   1.051   1.397   1.244   1.273   1.268   0.959   1.298   1.508   1.142   1.056   1.341   1.793   2.021   1.688   1.632   1.207   1.176   1.536   1.790   1.834   1.580   1.346   1.067   1.257   1.417   1.463   1.304   1.215   1.331   1.648   1.690   1.812   1.448   1.477   1.498   1.215   1.005   0.984   1.296   1.556   1.218   0.752   0.795   0.857
   134.48    1.568   1.604   1.522   1.376   1.651   1.433   1.313   1.595   1.339   1.335   1.087   0.934   0.974   1.104   1.238   1.156   1.209   1.242   1.107   1.446   1.712   1.774   1.831   1.886   1.697   1.721   1.545   0.889   1.031   1.078   1.079   1.179   1.472   1.633   1.257   1.364   1.033   1.050   0.975   1.010   1.158   1.046   1.351   1.584   1.197   1.044   0.980   1.075   1.034   0.952   0.907   0.972   0.989   1.152   1.291   1.135   0.884   1.014   1.066   1.561   1.899   1.884   2.055   1.826   1.836   1.480   1.626   1.305   0.804   1.104   1.025   1.062   0.971   1.219   0.961   1.247   1.115   1.034   1.349   1.315   1.221   0.897   0.868   0.958   1.081   1.311   1.344   1.450   1.174   0.956   0.955   1.092   0.844   0.961   1.060   0.868   0.951   0.997   1.238   1.311   1.369   1.382   1.489   1.342   1.494   1.391   1.218   1.112   0.846   1.109   0.907   1.070   1.101   1.101   0.998   1.078   1.071   0.975   0.927   1.059   1.229   0.981   0.891   1.075   1.087   1.024   1.142   1.119   0.882   1.036   0.957   1.199   1.276   1.320   1.013   0.965   1.199   1.001   1.371   1.258   1.444   1.713   1.084   0.994   1.143   1.104   1.116   1.342   1.313   1.184   1.200   1.327   1.156   1.631   1.453   1.320   1.272   1.472   1.427   1.476   1.211   1.430   1.160   1.259   1.566   1.528   1.717   2.169   1.920   1.509   1.747   1.395   1.395   1.792   1.882   1.368   1.516   1.535   1.455   1.595   1.308   1.156   1.487   1.399   1.555   1.498   1.468   1.820   1.388   1.777   1.308   1.211   1.336   1.247   1.192   1.528   1.479   1.072   1.103   1.226
   124.14    1.870   1.847   1.744   1.668   1.676   1.709   1.570   1.474   1.600   1.070   0.810   0.896   1.030   1.016   1.075   1.137   1.040   1.157   1.355   1.572   1.749   1.679   1.609   1.779   1.378   1.341   1.424   1.308   1.027   1.171   1.023   1.183   1.467   1.649   1.322   1.604   0.989   1.019   0.888   0.893   0.784   1.330   1.446   1.464   1.234   1.186   1.162   1.050   0.954   1.265   1.134   1.489   1.296   1.787   1.739   1.335   1.125   1.277   1.477   1.618   1.808   1.799   1.746   1.632   1.631   1.622   1.353   1.173   0.879   0.958   0.956   1.056   0.992   1.003   1.148   1.244   1.077   0.969   1.417   1.038   1.108   0.941   0.936   1.304   1.228   1.165   1.293   1.342   1.683   1.340   1.055   0.842   1.137   1.215   1.063   1.096   0.948   0.980   1.083   1.247   1.073   1.159   1.151   0.891   1.050   1.112   1.112   0.867   1.084   0.911   1.119   1.074   1.161   0.845   0.976   1.253   1.271   1.279   0.982   1.038   1.167   0.970   1.196   0.902   0.884   0.958   1.045   1.080   1.048   0.773   0.862   0.907   1.014   1.095   1.264   0.809   1.085   1.130   1.365   1.573   1.421   1.425   1.141   1.165   1.114   1.090   1.375   1.286   1.218   1.028   1.095   0.984   1.220   1.254   1.272   1.222   1.072   1.172   1.340   1.537   1.174   1.294   1.072   1.483   1.564   1.823   1.990   2.125   1.532   1.512   1.580   1.488   1.638   1.818   1.763   1.615   1.379   1.267   1.592   1.241   1.504   1.784   1.545   1.321   1.155   1.318   1.596   1.681   1.427   1.865   1.304   1.532   1.464   1.713   1.507   1.478   1.436   1.184   0.905   1.284
   113.79    1.764   1.384   1.224   1.281   1.643   1.359   1.223   1.388   1.362   1.328   1.142   0.979   1.231   1.181   1.135   1.231   1.498   1.119   1.306   1.096   1.338   1.380   1.608   1.469   1.302   0.968   1.268   1.036   0.926   1.142   1.005   1.344   1.107   1.357   1.395   1.540   1.218   1.110   1.004   0.882   1.238   1.488   1.399   0.945   1.000   0.943   1.214   1.173   1.044   1.438   1.386   1.425   1.695   1.931   1.521   1.301   1.673   1.467   1.607   1.534   1.681   1.553   1.600   1.569   1.201   1.241   1.253   0.923   0.872   1.022   0.945   0.790   1.249   1.420   1.026   0.985   1.188   1.068   1.508   1.536   0.978   1.310   1.090   1.355   1.064   1.252   1.467   1.545   1.489   1.399   1.378   1.205   1.367   1.494   1.185   0.848   0.970   0.893   1.094   1.259   1.218   1.291   1.004   0.791   0.884   1.071   1.303   1.120   1.145   1.054   0.945   0.787   0.941   0.916   0.918   0.893   1.143   1.306   1.243   1.316   1.124   1.123   1.110   1.164   1.279   0.869   0.979   1.173   1.065   1.090   1.075   0.797   0.941   1.106   1.091   0.891   0.830   1.110   1.425   1.225   1.062   1.258   1.061   1.269   1.110   1.191   1.240   1.219   1.108   0.953   0.836   1.114   1.091   0.864   0.891   1.098   0.989   0.943   1.247   1.480   1.374   1.267   1.140   1.334   1.377   1.337   1.504   1.681   1.676   1.783   1.245   1.149   1.340   1.581   1.715   1.544   1.284   1.239   1.345   1.249   1.640   1.444   1.826   2.045   1.469   1.412   1.440   1.408   2.021   2.044   1.583   1.384   1.367   1.496   1.263   1.151   1.171   1.233   1.394   1.437
   103.45    1.607   1.568   1.606   1.684   1.549   1.474   1.077   1.195   0.931   1.334   1.322   1.107   1.232   1.174   1.010   0.957   1.230   1.304   1.317   1.081   1.129   1.077   1.343   1.237   0.903   1.173   1.243   1.280   1.235   1.348   1.198   1.280   0.976   1.221   1.436   1.254   1.090   1.048   1.170   1.206   1.333   1.115   1.170   0.971   0.815   0.986   1.021   0.940   0.963   1.305   1.386   1.309   1.490   1.799   1.402   0.971   1.405   1.711   1.913   1.540   1.368   1.412   1.607   1.484   0.900   1.078   1.039   0.976   1.110   1.225   1.125   1.262   1.307   1.469   1.338   1.145   1.056   1.292   1.537   1.047   1.045   1.071   1.170   1.300   1.030   1.107   1.231   1.418   1.016   1.245   1.032   1.172   1.453   1.220   1.066   1.088   1.283   1.154   1.093   1.298   1.426   1.417   0.946   1.104   1.211   1.310   1.429   1.172   1.316   1.220   1.099   0.892   0.871   0.853   1.091   1.186   1.127   1.280   1.419   1.343   1.069   1.050   1.151   1.058   1.140   1.086   1.089   1.049   0.894   1.164   1.122   1.142   0.860   1.134   1.141   0.970   1.300   1.037   1.155   1.232   1.469   0.965   0.996   1.144   1.079   1.044   1.032   1.261   1.016   0.937   1.091   1.136   0.948   0.863   1.089   1.211   1.041   1.282   1.170   1.179   1.007   1.063   1.206   1.169   1.191   1.024   1.286   1.422   1.661   1.360   1.014   1.127   1.341   1.498   1.472   1.465   1.498   1.492   1.317   1.658   1.491   1.824   1.706   1.800   1.667   1.432   1.851   1.647   2.028   2.060   1.446   1.183   1.141   1.274   1.486   1.035   0.988   1.204   1.031   1.157
    93.10    1.525   1.721   1.374   1.512   1.065   1.308   1.009   1.190   1.110   1.181   1.178   1.235   1.018   1.100   0.976   0.791   1.205   1.287   1.465   1.250   1.014   1.263   1.240   1.283   1.090   1.187   1.577   1.392   1.508   1.706   1.419   1.020   1.000   1.365   1.336   1.341   1.271   0.892   0.996   1.284   1.431   1.192   1.370   1.141   0.850   1.280   1.001   1.038   1.203   1.157   1.239   1.212   1.527   1.628   1.363   1.041   1.320   1.289   1.617   2.000   2.192   1.607   1.862   2.015   1.549   1.054   1.117   1.434   0.974   1.062   1.243   1.484   1.419   1.560   1.389   0.952   1.160   0.918   1.186   1.101   0.783   1.059   1.132   0.995   1.347   0.908   1.028   1.197   1.142   1.119   1.217   1.184   1.234   1.256   1.471   0.995   1.352   1.431   1.350   1.257   1.580   1.485   1.491   0.979   1.294   1.517   0.953   1.048   1.092   1.233   1.027   1.118   1.343   1.486   0.975   1.059   1.301   1.357   1.161   1.300   1.384   1.402   1.184   1.116   1.228   1.284   1.138   1.387   1.345   1.265   1.359   1.162   0.860   1.152   1.193   1.378   1.373   0.885   1.050   0.888   1.094   1.088   0.972   1.199   1.040   1.048   1.312   1.029   1.075   1.084   1.076   0.896   0.812   0.954   0.946   1.003   1.293   1.319   1.334   0.997   1.209   1.181   1.172   1.100   1.128   1.217   1.309   1.800   1.618   1.583   1.574   1.438   2.020   1.847   1.641   1.382   1.456   1.161   1.543   1.632   1.332   1.608   1.934   1.827   1.265   1.487   1.714   1.499   1.692   1.750   1.093   1.177   1.205   1.255   1.224   1.151   1.035   1.445   1.536   1.593
    82.76    1.805   1.870   1.509   1.550   0.934   1.113   1.114   1.137   1.068   1.007   1.126   1.265   1.053   0.869   0.941   0.856   1.226   1.280   1.254   1.181   1.146   1.630   1.268   1.374   1.253   0.925   1.107   1.337   1.370   1.329   1.455   1.306   0.980   1.161   1.292   1.264   1.225   1.323   1.379   1.242   1.369   1.166   1.204   1.034   1.088   1.413   1.221   1.324   1.075   1.035   1.186   1.077   1.334   1.439   1.576   1.412   1.078   1.234   1.450   1.724   2.204   1.792   1.826   1.964   1.560   1.129   1.194   1.333   0.969   1.090   1.186   1.171   1.152   1.212   0.924   0.975   1.069   0.940   1.186   1.100   1.145   1.118   1.170   1.428   1.337   1.182   1.171   1.411   1.120   1.356   1.102   1.263   1.244   1.359   1.160   1.122   1.189   1.176   1.329   1.279   1.714   1.652   1.341   1.223   1.470   1.245   1.410   1.175   1.141   0.990   1.196   1.343   1.295   1.101   1.237   1.068   1.137   1.077   0.833   1.210   1.369   1.451   1.191   1.198   1.389   1.218   1.103   1.401   0.985   1.355   1.288   0.944   1.089   1.052   1.035   1.204   1.270   1.278   1.042   1.009   1.022   1.255   1.161   1.134   1.258   1.326   1.361   1.073   1.004   0.949   0.888   0.995   1.129   0.989   1.128   0.849   1.119   1.554   1.541   1.530   1.339   1.207   0.885   1.044   1.002   1.053   1.727   1.775   2.106   2.091   1.691   1.867   2.046   2.106   2.142   1.659   1.494   1.167   1.423   1.245   1.346   1.594   1.688   1.305   1.499   1.454   1.066   1.156   1.294   1.061   1.337   1.126   1.263   1.015   1.451   1.000   1.431   1.517   1.578   1.854
    72.41    1.821   1.701   1.575   1.257   1.092   1.007   1.132   1.089   1.105   0.817   1.176   1.013   1.188   1.086   1.114   1.245   1.119   1.654   1.784   1.616   1.634   1.751   1.722   1.530   0.990   1.300   1.293   1.196   1.254   1.192   0.880   0.912   0.884   0.965   1.528   1.903   1.319   1.151   1.045   1.366   1.360   1.271   1.317   1.303   0.933   1.236   1.108   1.091   1.070   1.000   1.244   0.944   1.310   1.478   1.420   1.108   0.992   1.238   1.397   1.536   2.070   2.055   1.654   2.016   1.806   1.490   1.522   1.305   1.057   0.954   1.137   1.136   1.056   1.029   1.073   1.152   1.042   1.198   1.435   1.399   1.542   1.178   1.436   1.555   1.239   1.462   1.197   1.220   1.261   1.241   1.452   1.442   1.605   1.599   1.360   1.000   1.002   0.974   0.879   1.434   1.704   1.783   1.670   1.604   1.541   1.568   1.106   1.025   0.923   1.218   1.194   1.336   1.231   1.306   1.009   1.192   1.203   0.918   0.859   1.124   1.427   1.221   1.099   1.234   1.194   1.045   1.342   1.082   1.178   1.533   1.319   0.990   1.018   1.174   0.848   1.057   1.353   1.278   1.152   1.157   1.470   1.455   1.391   1.174   1.260   1.119   1.156   1.029   1.017   1.124   0.917   1.046   1.140   1.130   1.201   0.919   1.042   1.206   1.300   1.486   1.390   1.295   1.034   0.942   1.062   1.363   2.020   1.931   2.376   2.146   1.604   1.877   1.807   2.051   1.947   1.854   1.879   1.680   1.027   0.991   1.178   1.573   1.116   1.319   1.339   1.087   1.037   0.854   0.980   1.124   1.283   1.171   1.262   1.166   1.445   1.506   1.064   1.297   0.915   1.459
    62.07    1.969   1.987   1.255   1.387   1.415   1.577   1.294   0.998   1.121   1.424   1.289   1.252   1.468   1.649   1.476   1.446   1.474   1.394   2.011   2.071   2.328   1.566   1.394   1.172   0.782   1.282   1.136   1.303   1.209   1.026   1.127   1.022   1.355   1.236   1.684   1.742   1.594   1.319   1.139   1.119   1.160   1.314   1.434   1.110   1.061   1.118   1.402   1.312   1.251   0.903   1.317   1.360   1.157   1.421   1.306   1.304   1.395   1.575   1.878   2.151   2.265   1.826   1.848   1.838   2.206   1.874   1.493   1.173   1.402   1.136   1.062   1.012   0.867   0.989   1.166   0.909   0.917   1.271   1.145   1.072   1.378   1.096   1.354   1.322   0.974   1.255   1.055   1.004   1.282   1.256   1.523   1.450   1.538   1.563   1.271   1.305   1.258   0.902   1.146   1.250   1.417   1.472   1.460   1.240   1.003   1.310   1.095   1.108   1.393   1.121   0.994   1.209   1.225   1.185   1.179   0.844   0.977   0.822   1.071   1.503   1.363   1.684   1.326   1.347   1.323   1.152   1.432   0.962   1.245   1.343   1.316   1.077   1.166   1.300   1.158   1.127   1.126   1.330   1.149   0.989   1.206   1.069   1.144   0.865   1.104   1.144   1.116   0.988   1.038   1.116   0.940   0.893   0.948   1.089   1.191   1.193   0.954   1.013   0.934   1.107   1.137   0.832   0.826   0.986   1.527   1.710   2.214   2.418   2.405   2.223   1.948   1.717   1.720   1.766   1.904   1.635   1.509   1.516   1.277   1.015   1.258   1.503   1.304   1.127   1.164   0.981   0.981   1.014   0.894   1.314   1.264   1.181   1.497   1.548   1.561   1.092   0.856   0.967   0.855   1.456
    51.72    1.721   1.710   1.477   1.311   1.430   1.278   1.064   1.294   1.696   1.216   1.503   1.340   1.507   1.467   1.180   1.500   1.734   2.048   2.108   2.082   2.065   1.806   1.319   0.868   1.156   1.425   1.421   1.105   1.019   0.994   1.081   0.825   1.251   1.672   2.068   1.812   1.484   1.368   1.049   1.292   1.195   1.191   1.462   1.090   1.241   1.162   1.221   1.199   1.063   0.946   1.031   1.213   1.209   1.316   1.536   1.558   1.216   1.214   1.469   1.831   1.850   1.594   1.549   1.703   1.849   1.620   1.455   1.220   1.467   1.346   1.090   1.191   1.115   1.348   1.314   1.098   0.849   0.997   1.094   1.115   1.204   1.293   1.146   1.113   1.167   1.282   0.991   1.155   1.268   1.134   1.254   1.579   1.730   1.881   1.617   1.696   1.249   1.032   1.000   1.156   1.114   1.244   1.340   1.542   1.374   1.186   1.293   1.104   1.663   1.203   1.101   1.040   0.984   0.918   1.028   0.942   0.932   1.009   1.002   1.237   1.623   1.524   1.714   1.833   1.578   1.076   1.125   1.359   1.129   1.358   1.068   1.081   0.901   1.227   1.323   1.320   1.094   1.093   0.918   0.860   0.811   1.136   1.203   1.025   0.950   1.137   1.187   0.998   1.039   0.997   1.264   1.353   0.841   1.134   1.360   0.994   1.148   1.132   1.154   1.354   1.094   1.067   1.006   1.422   2.027   1.964   2.350   2.261   2.505   2.075   2.557   2.244   1.948   2.254   2.009   1.460   1.550   1.548   1.460   1.086   1.130   1.269   1.104   1.281   1.286   1.087   1.057   0.903   0.911   1.190   1.219   1.584   1.164   1.299   1.337   1.177   1.008   1.013   1.275   1.726
    41.38    1.534   1.317   1.297   1.162   1.368   1.222   1.537   1.358   1.628   1.674   1.474   1.267   1.133   1.222   1.152   1.521   1.536   1.795   1.588   1.795   1.794   1.367   1.047   0.950   1.055   1.054   1.264   1.487   1.002   1.117   0.875   0.969   1.083   1.257   1.758   1.943   1.927   1.434   1.208   0.980   1.339   1.661   1.536   1.408   1.279   1.163   1.402   1.371   0.845   0.782   1.025   1.093   1.145   1.386   1.191   1.449   1.284   1.325   1.234   1.716   1.795   1.873   1.417   1.386   1.535   1.494   0.930   1.339   1.466   1.009   1.138   1.120   1.194   1.047   1.156   0.862   1.066   0.843   0.789   0.811   0.850   1.172   1.125   1.026   1.082   1.154   1.205   0.985   0.961   1.105   1.413   1.568   1.363   1.711   1.772   1.415   1.418   1.464   1.415   0.983   0.770   0.967   1.188   1.518   1.371   1.453   1.542   1.632   1.551   1.454   1.135   1.061   0.969   0.992   0.733   0.842   0.976   0.910   0.876   1.113   1.323   2.138   1.936   1.873   1.829   1.481   1.276   1.112   1.078   1.420   1.397   1.611   1.264   0.950   1.302   1.310   1.025   0.997   0.783   1.008   0.893   1.198   1.118   0.927   0.961   0.974   1.227   1.196   1.549   1.523   1.222   1.239   1.069   1.082   1.174   1.284   1.133   1.320   1.266   1.064   1.104   1.433   1.376   1.637   1.963   2.280   2.479   1.854   2.173   2.371   2.431   2.172   2.079   2.265   1.715   1.357   1.442   1.477   1.138   1.242   1.101   1.066   1.045   1.218   1.602   1.712   1.193   0.913   1.029   0.916   1.189   1.479   1.014   1.185   1.243   1.080   0.928   1.334   1.446   1.687
    31.03    1.563   1.272   1.362   1.494   1.276   1.161   1.466   1.693   1.663   1.416   1.179   1.261   1.151   1.070   1.264   1.310   1.595   2.021   1.712   1.612   1.386   1.314   1.233   1.064   1.143   1.271   0.938   1.111   1.224   1.267   0.995   0.940   1.025   1.161   1.402   1.656   1.801   1.375   1.052   1.098   1.330   1.378   1.335   1.110   1.119   1.305   1.358   1.214   0.908   0.813   0.991   1.113   1.050   0.937   1.148   1.396   1.667   1.555   1.729   1.771   1.754   1.883   1.654   1.886   1.636   1.542   1.224   1.278   1.465   1.274   0.943   1.031   1.063   1.110   1.443   0.952   0.894   1.115   0.844   1.053   1.209   1.141   1.100   1.025   1.072   0.756   1.153   0.994   0.839   1.014   1.092   1.621   1.470   1.682   1.490   1.903   1.769   1.408   1.121   1.060   0.903   0.979   1.197   1.486   1.240   1.538   0.971   1.398   1.215   1.432   1.459   0.822   1.069   0.832   1.007   0.977   0.990   1.094   1.136   1.323   1.889   2.256   2.406   2.269   1.893   1.972   1.743   1.630   1.477   1.470   1.707   1.852   1.711   1.445   1.220   1.141   1.034   1.259   1.294   1.310   1.055   1.135   1.180   1.212   0.746   0.776   0.959   1.216   1.099   1.397   1.432   1.104   1.072   1.010   1.573   1.834   1.200   1.242   1.400   1.445   1.486   1.223   1.005   1.328   1.627   1.907   2.022   2.017   2.102   1.989   1.778   1.814   1.887   2.120   1.940   1.491   1.465   1.189   1.106   1.291   1.159   1.274   1.126   1.304   1.393   1.452   1.179   1.193   1.245   1.068   1.348   1.316   1.042   1.158   1.225   1.117   1.140   1.365   1.435   1.574
    20.69    1.467   1.159   1.227   1.467   1.024   1.384   1.352   1.684   1.457   1.168   1.060   1.027   0.939   1.158   1.527   1.554   1.815   1.861   1.833   1.529   1.084   0.912   1.110   1.380   1.080   0.947   1.364   1.389   1.328   1.337   1.489   0.965   0.850   1.191   1.594   1.792   1.594   1.797   1.337   1.335   1.034   1.278   1.370   1.073   1.084   1.226   1.130   1.170   1.107   1.007   1.079   1.054   1.165   1.028   1.031   1.000   1.195   1.470   1.889   1.913   1.912   1.975   2.082   1.516   1.485   1.411   1.270   1.449   1.288   1.256   0.885   1.055   1.299   1.387   1.640   1.336   0.903   1.018   1.058   1.273   1.108   0.955   1.274   1.276   1.202   1.146   1.264   0.978   0.747   0.893   1.098   1.503   1.692   1.995   2.072   2.076   1.623   1.194   0.955   0.753   0.917   0.791   1.194   1.400   1.547   1.065   1.207   1.535   1.673   1.418   1.442   0.919   0.966   1.030   0.911   1.074   1.133   1.265   0.952   1.298   1.673   1.918   2.029   2.025   2.060   1.986   1.681   1.376   1.343   1.453   1.332   1.405   1.484   1.318   1.154   1.100   1.288   1.397   1.113   1.253   1.427   0.986   0.997   1.112   1.211   0.912   1.110   1.189   0.918   1.118   1.021   1.145   1.109   1.135   1.491   1.639   1.227   1.088   1.228   1.171   1.303   1.095   1.259   1.671   1.680   1.742   1.987   2.151   1.599   1.543   1.239   1.661   1.723   2.021   1.892   1.493   1.272   1.136   1.217   1.146   1.244   1.248   0.844   0.968   0.991   1.243   0.968   1.150   0.789   1.171   1.307   1.149   1.466   1.126   1.277   1.503   1.217   1.304   1.289   1.584
    10.34    1.272   1.204   0.905   1.314   1.241   1.285   1.650   1.783   1.178   1.238   0.744   0.907   1.044   1.055   1.316   1.505   1.490   1.316   1.463   1.473   1.180   1.133   1.266   1.156   1.336   1.097   1.372   0.988   1.171   1.385   1.286   1.167   0.975   1.019   1.457   1.519   1.681   1.385   1.429   1.643   1.188   1.533   1.075   1.173   1.133   0.952   1.106   0.953   0.980   1.245   1.026   1.010   1.173   1.009   1.032   0.928   1.215   1.105   1.585   1.795   1.683   1.778   1.995   1.337   1.182   0.960   1.072   1.232   1.049   1.123   0.940   1.036   1.028   1.221   1.522   1.115   1.215   1.445   1.166   1.216   0.901   0.762   1.381   1.580   1.464   1.422   1.584   1.375   1.148   0.818   0.982   1.374   1.634   1.478   1.717   1.898   1.469   1.317   1.419   1.300   1.030   1.188   1.365   1.331   1.338   1.066   1.486   1.810   1.453   1.561   1.014   1.178   1.063   1.073   0.995   1.159   1.036   1.259   1.285   1.066   1.260   1.533   1.831   1.734   1.835   1.823   1.227   1.336   1.036   1.223   1.132   0.840   1.213   1.048   1.184   1.281   1.317   1.491   0.998   0.976   1.190   1.052   1.128   1.038   1.238   1.079   1.280   1.050   1.198   0.942   1.144   0.789   0.800   1.118   1.369   1.301   1.131   1.331   1.242   1.471   1.452   1.559   1.287   1.699   1.314   1.721   1.731   2.062   1.687   1.418   1.477   1.595   1.569   1.662   1.457   1.589   1.409   1.179   1.319   1.098   1.100   1.090   0.843   0.940   1.218   1.121   1.090   1.296   1.112   1.115   1.104   1.395   1.506   1.357   1.494   1.325   1.662   1.449   1.607   1.692
     0.00    1.268   1.300   0.976   1.240   1.576   1.066   1.345   1.430   1.313   1.088   1.150   0.914   1.059   1.281   1.196   1.267   1.135   1.391   1.336   1.365   1.026   1.347   1.463   1.122   1.247   1.292   1.292   1.219   1.195   1.117   1.081   1.027   1.121   1.341   1.375   1.089   1.255   1.056   1.221   1.335   1.421   1.340   1.041   0.991   1.176   1.116   0.897   0.847   1.086   1.126   0.929   1.020   0.937   0.951   1.168   1.038   1.334   1.371   1.543   1.666   1.963   2.141   2.137   1.549   1.083   0.965   0.973   0.985   1.185   1.496   1.261   1.427   1.584   1.234   1.381   1.348   1.464   1.623   1.497   1.087   1.135   1.318   1.457   1.660   1.832   1.634   1.917   1.566   1.516   1.309   1.152   1.191   1.240   1.364   1.588   1.495   1.290   1.420   1.767   1.423   1.381   1.025   1.375   1.449   1.404   1.174   1.200   1.455   1.604   1.847   1.374   1.380   1.238   1.273   1.125   1.100   1.300   1.479   1.223   1.174   1.200   1.227   1.511   1.613   1.799   1.474   1.340   1.186   1.401   1.153   0.964   0.763   1.117   0.961   1.142   1.476   1.495   1.727   1.241   1.074   0.816   1.166   1.048   1.120   1.215   1.422   1.117   1.298   1.180   1.402   1.210   0.884   0.953   1.151   1.185   0.965   1.084   0.948   1.254   1.277   1.184   1.155   1.174   1.277   1.592   1.818   1.750   1.858   1.882   1.471   0.946   1.245   1.366   1.267   1.332   1.250   1.361   1.280   1.347   1.120   1.083   1.069   1.113   0.972   1.094   1.344   0.992   1.365   0.841   1.010   1.199   1.074   1.172   1.175   1.245   1.547   1.630   1.365   1.662   1.489

   Height   Standard deviation at grid points for the v component:
   300.00    1.199   1.199   1.199   1.199   1.199   1.199   1.199   1.199   1.199   1.199   1.199   1.199   1.199   1.199   1.199   1.199   1.199   1.199   1.199   1.199   1.199   1.199   1.199   1.199   1.199   1.199   1.199   1.199   1.199   1.199   1.199   1.199   1.199   1.199   1.199   1.199   1.199   1.199   1.199   1.199   1.199   1.199   1.199   1.199   1.199   1.199   1.199   1.199   1.199   1.199   1.199   1.199   1.199   1.199   1.199   1.199   1.199   1.199   1.199   1.199   1.199   1.199   1.199   1.199   1.199   1.199   1.199   1.199   1.199   1.199   1.199   1.199   1.199   1.199   1.199   1.199   1.199   1.199   1.199   1.199   1.199   1.199   1.199   1.199   1.199   1.199   1.199   1.199   1.199   1.199   1.199   1.199   1.199   1.199   1.199   1.199   1.199   1.199   1.199   1.199   1.199   1.199   1.199   1.199   1.199   1.199   1.199   1.199   1.199   1.199   1.199   1.199   1.199   1.199   1.199   1.199   1.199   1.199   1.199   1.199   1.199   1.199   1.199   1.199   1.199   1.199   1.199   1.199   1.199   1.199   1.199   1.199   1.199   1.199   1.199   1.199   1.199   1.199   1.199   1.199   1.199   1.199   1.199   1.199   1.199   1.199   1.199   1.199   1.199   1.199   1.199   1.199   1.199   1.199   1.199   1.199   1.199   1.199   1.199   1.199   1.199   1.199   1.199   1.199   1.199   1.199   1.199   1.199   1.199   1.199   1.199   1.199   1.199   1.199   1.199   1.199   1.199   1.199   1.199   1.199   1.199   1.199   1.199   1.199   1.199   1.199   1.199   1.199   1.199   1.199   1.199   1.199   1.199   1.199   1.199   1.199   1.199   1.199   1.199   1.199
   289.66    1.199   1.199   1.199   1.199   1.199   1.199   1.199   1.199   1.199   1.199   1.199   1.199   1.199   1.199   1.199   1.199   1.199   1.199   1.199   1.199   1.199   1.199   1.199   1.199   1.199   1.199   1.199   1.199   1.199   1.199   1.199   1.199   1.199   1.199   1.199   1.199   1.199   1.199   1.199   1.199   1.199   1.199   1.199   1.199   1.199   1.199   1.199   1.199   1.199   1.199   1.199   1.199   1.199   1.199   1.199   1.199   1.199   1.199   1.199   1.199   1.199   1.199   1.199   1.199   1.199   1.199   1.199   1.199   1.199   1.199   1.199   1.199   1.199   1.199   1.199   1.199   1.199   1.199   1.199   1.199   1.199   1.199   1.199   1.199   1.199   1.199   1.199   1.199   1.199   1.199   1.199   1.199   1.199   1.199   1.199   1.199   1.199   1.199   1.199   1.199   1.199   1.199   1.199   1.199   1.199   1.199   1.199   1.199   1.199   1.199   1.199   1.199   1.199   1.199   1.199   1.199   1.199   1.199   1.199   1.199   1.199   1.199   1.199   1.199   1.199   1.199   1.199   1.199   1.199   1.199   1.199   1.199   1.199   1.199   1.199   1.199   1.199   1.199   1.199   1.199   1.199   1.199   1.199   1.199   1.199   1.199   1.199   1.199   1.199   1.199   1.199   1.199   1.199   1.199   1.199   1.199   1.199   1.199   1.199   1.199   1.199   1.199   1.199   1.199   1.199   1.199   1.199   1.199   1.199   1.199   1.199   1.199   1.199   1.199   1.199   1.199   1.199   1.199   1.199   1.199   1.199   1.199   1.199   1.199   1.199   1.199   1.199   1.199   1.199   1.199   1.199   1.199   1.199   1.199   1.199   1.199   1.199   1.199   1.199   1.199
   279.31    1.199   1.199   1.199   1.199   1.199   1.199   1.199   1.199   1.199   1.199   1.199   1.199   1.199   1.199   1.199   1.199   1.199   1.199   1.199   1.199   1.199   1.199   1.199   1.199   1.199   1.199   1.199   1.199   1.199   1.199   1.199   1.199   1.199   1.199   1.199   1.199   1.199   1.199   1.199   1.199   1.199   1.199   1.199   1.199   1.199   1.199   1.199   1.199   1.199   1.199   1.199   1.199   1.199   1.199   1.199   1.199   1.199   1.199   1.199   1.199   1.199   1.199   1.199   1.199   1.199   1.199   1.199   1.199   1.199   1.199   1.199   1.199   1.199   1.199   1.199   1.199   1.199   1.199   1.199   1.199   1.199   1.199   1.199   1.199   1.199   1.199   1.199   1.199   1.199   1.199   1.199   1.199   1.199   1.199   1.199   1.199   1.199   1.199   1.199   1.199   1.199   1.199   1.199   1.199   1.199   1.199   1.199   1.199   1.199   1.199   1.199   1.199   1.199   1.199   1.199   1.199   1.199   1.199   1.199   1.199   1.199   1.199   1.199   1.199   1.199   1.199   1.199   1.199   1.199   1.199   1.199   1.199   1.199   1.199   1.199   1.199   1.199   1.199   1.199   1.199   1.199   1.199   1.199   1.199   1.199   1.199   1.199   1.199   1.199   1.199   1.199   1.199   1.199   1.199   1.199   1.199   1.199   1.199   1.199   1.199   1.199   1.199   1.199   1.199   1.199   1.199   1.199   1.199   1.199   1.199   1.199   1.199   1.199   1.199   1.199   1.199   1.199   1.199   1.199   1.199   1.199   1.199   1.199   1.199   1.199   1.199   1.199   1.199   1.199   1.199   1.199   1.199   1.199   1.199   1.199   1.199   1.199   1.199   1.199   1.199
   268.97    1.199   1.199   1.199   1.199   1.199   1.199   1.199   1.199   1.199   1.199   1.199   1.199   1.199   1.199   1.199   1.199   1.199   1.199   1.199   1.199   1.199   1.199   1.199   1.199   1.199   1.199   1.199   1.199   1.199   1.199   1.199   1.199   1.199   1.199   1.199   1.199   1.199   1.199   1.199   1.199   1.199   1.199   1.199   1.199   1.199   1.199   1.199   1.199   1.199   1.199   1.199   1.199   1.199   1.199   1.199   1.199   1.199   1.199   1.199   1.199   1.199   1.199   1.199   1.199   1.199   1.199   1.199   1.199   1.199   1.199   1.199   1.199   1.199   1.199   1.199   1.199   1.199   1.199   1.199   1.199   1.199   1.199   1.199   1.199   1.199   1.199   1.199   1.199   1.199   1.199   1.199   1.199   1.199   1.199   1.199   1.199   1.199   1.199   1.199   1.199   1.199   1.199   1.199   1.199   1.199   1.199   1.199   1.199   1.199   1.199   1.199   1.199   1.199   1.199   1.199   1.199   1.199   1.199   1.199   1.199   1.199   1.199   1.199   1.199   1.199   1.199   1.199   1.199   1.199   1.199   1.199   1.199   1.199   1.199   1.199   1.199   1.199   1.199   1.199   1.199   1.199   1.199   1.199   1.199   1.199   1.199   1.199   1.199   1.199   1.199   1.199   1.199   1.199   1.199   1.199   1.199   1.199   1.199   1.199   1.199   1.199   1.199   1.199   1.199   1.199   1.199   1.199   1.199   1.199   1.199   1.199   1.199   1.199   1.199   1.199   1.199   1.199   1.199   1.199   1.199   1.199   1.199   1.199   1.199   1.199   1.199   1.199   1.199   1.199   1.199   1.199   1.199   1.199   1.199   1.199   1.199   1.199   1.199   1.199   1.199
   258.62    1.199   1.199   1.199   1.199   1.199   1.199   1.199   1.199   1.199   1.199   1.199   1.199   1.199   1.199   1.199   1.199   1.199   1.199   1.199   1.199   1.199   1.199   1.199   1.199   1.199   1.199   1.199   1.199   1.199   1.199   1.199   1.199   1.199   1.199   1.199   1.199   1.199   1.199   1.199   1.199   1.199   1.199   1.199   1.199   1.199   1.199   1.199   1.199   1.199   1.199   1.199   1.199   1.199   1.199   1.199   1.199   1.199   1.199   1.199   1.199   1.199   1.199   1.199   1.199   1.199   1.199   1.199   1.199   1.199   1.199   1.199   1.199   1.199   1.199   1.199   1.199   1.199   1.199   1.199   1.199   1.199   1.199   1.199   1.199   1.199   1.199   1.199   1.199   1.199   1.199   1.199   1.199   1.199   1.199   1.199   1.199   1.199   1.199   1.199   1.199   1.199   1.199   1.199   1.199   1.199   1.199   1.199   1.199   1.199   1.199   1.199   1.199   1.199   1.199   1.199   1.199   1.199   1.199   1.199   1.199   1.199   1.199   1.199   1.199   1.199   1.199   1.199   1.199   1.199   1.199   1.199   1.199   1.199   1.199   1.199   1.199   1.199   1.199   1.199   1.199   1.199   1.199   1.199   1.199   1.199   1.199   1.199   1.199   1.199   1.199   1.199   1.199   1.199   1.199   1.199   1.199   1.199   1.199   1.199   1.199   1.199   1.199   1.199   1.199   1.199   1.199   1.199   1.199   1.199   1.199   1.199   1.199   1.199   1.199   1.199   1.199   1.199   1.199   1.199   1.199   1.199   1.199   1.199   1.199   1.199   1.199   1.199   1.199   1.199   1.199   1.199   1.199   1.199   1.199   1.199   1.199   1.199   1.199   1.199   1.199
   248.28    1.199   1.199   1.199   1.199   1.199   1.199   1.199   1.199   1.199   1.199   1.199   1.199   1.199   1.199   1.199   1.199   1.199   1.199   1.199   1.199   1.199   1.199   1.199   1.199   1.199   1.199   1.199   1.199   1.199   1.199   1.199   1.199   1.199   1.199   1.199   1.199   1.199   1.199   1.199   1.199   1.199   1.199   1.199   1.199   1.199   1.199   1.199   1.199   1.199   1.199   1.199   1.199   1.199   1.199   1.199   1.199   1.199   1.199   1.199   1.199   1.199   1.199   1.199   1.199   1.199   1.199   1.199   1.199   1.199   1.199   1.199   1.199   1.199   1.199   1.199   1.199   1.199   1.199   1.199   1.199   1.199   1.199   1.199   1.199   1.199   1.199   1.199   1.199   1.199   1.199   1.199   1.199   1.199   1.199   1.199   1.199   1.199   1.199   1.199   1.199   1.199   1.199   1.199   1.199   1.199   1.199   1.199   1.199   1.199   1.199   1.199   1.199   1.199   1.199   1.199   1.199   1.199   1.199   1.199   1.199   1.199   1.199   1.199   1.199   1.199   1.199   1.199   1.199   1.199   1.199   1.199   1.199   1.199   1.199   1.199   1.199   1.199   1.199   1.199   1.199   1.199   1.199   1.199   1.199   1.199   1.199   1.199   1.199   1.199   1.199   1.199   1.199   1.199   1.199   1.199   1.199   1.199   1.199   1.199   1.199   1.199   1.199   1.199   1.199   1.199   1.199   1.199   1.199   1.199   1.199   1.199   1.199   1.199   1.199   1.199   1.199   1.199   1.199   1.199   1.199   1.199   1.199   1.199   1.199   1.199   1.199   1.199   1.199   1.199   1.199   1.199   1.199   1.199   1.199   1.199   1.199   1.199   1.199   1.199   1.199
   237.93    1.199   1.199   1.199   1.199   1.199   1.199   1.199   1.199   1.199   1.199   1.199   1.199   1.199   1.199   1.199   1.199   1.199   1.199   1.199   1.199   1.199   1.199   1.199   1.199   1.199   1.199   1.199   1.199   1.199   1.199   1.199   1.199   1.199   1.199   1.199   1.199   1.199   1.199   1.199   1.199   1.199   1.199   1.199   1.199   1.199   1.199   1.199   1.199   1.199   1.199   1.199   1.199   1.199   1.199   1.199   1.199   1.199   1.199   1.199   1.199   1.199   1.199   1.199   1.199   1.199   1.199   1.199   1.199   1.199   1.199   1.199   1.199   1.199   1.199   1.199   1.199   1.199   1.199   1.199   1.199   1.199   1.199   1.199   1.199   1.199   1.199   1.199   1.199   1.199   1.199   1.199   1.199   1.199   1.199   1.199   1.199   1.199   1.199   1.199   1.199   1.199   1.199   1.199   1.199   1.199   1.199   1.199   1.199   1.199   1.199   1.199   1.199   1.199   1.199   1.199   1.199   1.199   1.199   1.199   1.199   1.199   1.199   1.199   1.199   1.199   1.199   1.199   1.199   1.199   1.199   1.199   1.199   1.199   1.199   1.199   1.199   1.199   1.199   1.199   1.199   1.199   1.199   1.199   1.199   1.199   1.199   1.199   1.199   1.199   1.199   1.199   1.199   1.199   1.199   1.199   1.199   1.199   1.199   1.199   1.199   1.199   1.199   1.199   1.199   1.199   1.199   1.199   1.199   1.199   1.199   1.199   1.199   1.199   1.199   1.199   1.199   1.199   1.199   1.199   1.199   1.199   1.199   1.199   1.199   1.199   1.199   1.199   1.199   1.199   1.199   1.199   1.199   1.199   1.199   1.199   1.199   1.199   1.199   1.199   1.199
   227.59    1.199   1.199   1.199   1.199   1.199   1.199   1.199   1.199   1.199   1.199   1.199   1.199   1.199   1.199   1.199   1.199   1.199   1.199   1.199   1.199   1.199   1.199   1.199   1.199   1.199   1.199   1.199   1.199   1.199   1.199   1.199   1.199   1.199   1.199   1.199   1.199   1.199   1.199   1.199   1.199   1.199   1.199   1.199   1.199   1.199   1.199   1.199   1.199   1.199   1.199   1.199   1.199   1.199   1.199   1.199   1.199   1.199   1.199   1.199   1.199   1.199   1.199   1.199   1.199   1.199   1.199   1.199   1.199   1.199   1.199   1.199   1.199   1.199   1.199   1.199   1.199   1.199   1.199   1.199   1.199   1.199   1.199   1.199   1.199   1.199   1.199   1.199   1.199   1.199   1.199   1.199   1.199   1.199   1.199   1.199   1.199   1.199   1.199   1.199   1.199   1.199   1.199   1.199   1.199   1.199   1.199   1.199   1.199   1.199   1.199   1.199   1.199   1.199   1.199   1.199   1.199   1.199   1.199   1.199   1.199   1.199   1.199   1.199   1.199   1.199   1.199   1.199   1.199   1.199   1.199   1.199   1.199   1.199   1.199   1.199   1.199   1.199   1.199   1.199   1.199   1.199   1.199   1.199   1.199   1.199   1.199   1.199   1.199   1.199   1.199   1.199   1.199   1.199   1.199   1.199   1.199   1.199   1.199   1.199   1.199   1.199   1.199   1.199   1.199   1.199   1.199   1.199   1.199   1.199   1.199   1.199   1.199   1.199   1.199   1.199   1.199   1.199   1.199   1.199   1.199   1.199   1.199   1.199   1.199   1.199   1.199   1.199   1.199   1.199   1.199   1.199   1.199   1.199   1.199   1.199   1.199   1.199   1.199   1.199   1.199
   217.24    1.199   1.199   1.199   1.199   1.199   1.199   1.199   1.199   1.199   1.199   1.199   1.199   1.199   1.199   1.199   1.199   1.199   1.199   1.199   1.199   1.199   1.199   1.199   1.199   1.199   1.199   1.199   1.199   1.199   1.199   1.199   1.199   1.199   1.199   1.199   1.199   1.199   1.199   1.199   1.199   1.199   1.199   1.199   1.199   1.199   1.199   1.199   1.199   1.199   1.199   1.199   1.199   1.199   1.199   1.199   1.199   1.199   1.199   1.199   1.199   1.199   1.199   1.199   1.199   1.199   1.199   1.199   1.199   1.199   1.199   1.199   1.199   1.199   1.199   1.199   1.199   1.199   1.199   1.199   1.199   1.199   1.199   1.199   1.199   1.199   1.199   1.199   1.199   1.199   1.199   1.199   1.199   1.199   1.199   1.199   1.199   1.199   1.199   1.199   1.199   1.199   1.199   1.199   1.199   1.199   1.199   1.199   1.199   1.199   1.199   1.199   1.199   1.199   1.199   1.199   1.199   1.199   1.199   1.199   1.199   1.199   1.199   1.199   1.199   1.199   1.199   1.199   1.199   1.199   1.199   1.199   1.199   1.199   1.199   1.199   1.199   1.199   1.199   1.199   1.199   1.199   1.199   1.199   1.199   1.199   1.199   1.199   1.199   1.199   1.199   1.199   1.199   1.199   1.199   1.199   1.199   1.199   1.199   1.199   1.199   1.199   1.199   1.199   1.199   1.199   1.199   1.199   1.199   1.199   1.199   1.199   1.199   1.199   1.199   1.199   1.199   1.199   1.199   1.199   1.199   1.199   1.199   1.199   1.199   1.199   1.199   1.199   1.199   1.199   1.199   1.199   1.199   1.199   1.199   1.199   1.199   1.199   1.199   1.199   1.199
   206.90    1.199   1.199   1.199   1.199   1.199   1.199   1.199   1.199   1.199   1.199   1.199   1.199   1.199   1.199   1.199   1.199   1.199   1.199   1.199   1.199   1.199   1.199   1.199   1.199   1.199   1.199   1.199   1.199   1.199   1.199   1.199   1.199   1.199   1.199   1.199   1.199   1.199   1.199   1.199   1.199   1.199   1.199   1.199   1.199   1.199   1.199   1.199   1.199   1.199   1.199   1.199   1.199   1.199   1.199   1.199   1.199   1.199   1.199   1.199   1.199   1.199   1.199   1.199   1.199   1.199   1.199   1.199   1.199   1.199   1.199   1.199   1.199   1.199   1.199   1.199   1.199   1.199   1.199   1.199   1.199   1.199   1.199   1.199   1.199   1.199   1.199   1.199   1.199   1.199   1.199   1.199   1.199   1.199   1.199   1.199   1.199   1.199   1.199   1.199   1.199   1.199   1.199   1.199   1.199   1.199   1.199   1.199   1.199   1.199   1.199   1.199   1.199   1.199   1.199   1.199   1.199   1.199   1.199   1.199   1.199   1.199   1.199   1.199   1.199   1.199   1.199   1.199   1.199   1.199   1.199   1.199   1.199   1.199   1.199   1.199   1.199   1.199   1.199   1.199   1.199   1.199   1.199   1.199   1.199   1.199   1.199   1.199   1.199   1.199   1.199   1.199   1.199   1.199   1.199   1.199   1.199   1.199   1.199   1.199   1.199   1.199   1.199   1.199   1.199   1.199   1.199   1.199   1.199   1.199   1.199   1.199   1.199   1.199   1.199   1.199   1.199   1.199   1.199   1.199   1.199   1.199   1.199   1.199   1.199   1.199   1.199   1.199   1.199   1.199   1.199   1.199   1.199   1.199   1.199   1.199   1.199   1.199   1.199   1.199   1.199
   196.55    1.199   1.199   1.199   1.199   1.199   1.199   1.199   1.199   1.199   1.199   1.199   1.199   1.199   1.199   1.199   1.199   1.199   1.199   1.199   1.199   1.199   1.199   1.199   1.199   1.199   1.199   1.199   1.199   1.199   1.199   1.199   1.199   1.199   1.199   1.199   1.199   1.199   1.199   1.199   1.199   1.199   1.199   1.199   1.199   1.199   1.199   1.199   1.199   1.199   1.199   1.199   1.199   1.199   1.199   1.199   1.199   1.199   1.199   1.199   1.199   1.199   1.199   1.199   1.199   1.199   1.199   1.199   1.199   1.199   1.199   1.199   1.199   1.199   1.199   1.199   1.199   1.199   1.199   1.199   1.199   1.199   1.199   1.199   1.199   1.199   1.199   1.199   1.199   1.199   1.199   1.199   1.199   1.199   1.199   1.199   1.199   1.199   1.199   1.199   1.199   1.199   1.199   1.199   1.199   1.199   1.199   1.199   1.199   1.199   1.199   1.199   1.199   1.199   1.199   1.199   1.199   1.199   1.199   1.199   1.199   1.199   1.199   1.199   1.199   1.199   1.199   1.199   1.199   1.199   1.199   1.199   1.199   1.199   1.199   1.199   1.199   1.199   1.199   1.199   1.199   1.199   1.199   1.199   1.199   1.199   1.199   1.199   1.199   1.199   1.199   1.199   1.199   1.199   1.199   1.199   1.199   1.199   1.199   1.199   1.199   1.199   1.199   1.199   1.199   1.199   1.199   1.199   1.199   1.199   1.199   1.199   1.199   1.199   1.199   1.199   1.199   1.199   1.199   1.199   1.199   1.199   1.199   1.199   1.199   1.199   1.199   1.199   1.199   1.199   1.199   1.199   1.199   1.199   1.199   1.199   1.199   1.199   1.199   1.199   1.199
   186.21    1.199   1.199   1.199   1.199   1.199   1.199   1.199   1.199   1.199   1.199   1.199   1.199   1.199   1.199   1.199   1.199   1.199   1.199   1.199   1.199   1.199   1.199   1.199   1.199   1.199   1.199   1.199   1.199   1.199   1.199   1.199   1.199   1.199   1.199   1.199   1.199   1.199   1.199   1.199   1.199   1.199   1.199   1.199   1.199   1.199   1.199   1.199   1.199   1.199   1.199   1.199   1.199   1.199   1.199   1.199   1.199   1.199   1.199   1.199   1.199   1.199   1.199   1.199   1.199   1.199   1.199   1.199   1.199   1.199   1.199   1.199   1.199   1.199   1.199   1.199   1.199   1.199   1.199   1.199   1.199   1.199   1.199   1.199   1.199   1.199   1.199   1.199   1.199   1.199   1.199   1.199   1.199   1.199   1.199   1.199   1.199   1.199   1.199   1.199   1.199   1.199   1.199   1.199   1.199   1.199   1.199   1.199   1.199   1.199   1.199   1.199   1.199   1.199   1.199   1.199   1.199   1.199   1.199   1.199   1.199   1.199   1.199   1.199   1.199   1.199   1.199   1.199   1.199   1.199   1.199   1.199   1.199   1.199   1.199   1.199   1.199   1.199   1.199   1.199   1.199   1.199   1.199   1.199   1.199   1.199   1.199   1.199   1.199   1.199   1.199   1.199   1.199   1.199   1.199   1.199   1.199   1.199   1.199   1.199   1.199   1.199   1.199   1.199   1.199   1.199   1.199   1.199   1.199   1.199   1.199   1.199   1.199   1.199   1.199   1.199   1.199   1.199   1.199   1.199   1.199   1.199   1.199   1.199   1.199   1.199   1.199   1.199   1.199   1.199   1.199   1.199   1.199   1.199   1.199   1.199   1.199   1.199   1.199   1.199   1.199
[...]
   113.79    0.781   0.781   0.781   0.781   0.781   0.781   0.781   0.781   0.781   0.781   0.781   0.781   0.781   0.781   0.781   0.781   0.781   0.781   0.781   0.781   0.781   0.781   0.781   0.781   0.781   0.781   0.781   0.781   0.781   0.781   0.781   0.781   0.781   0.781   0.781   0.781   0.781   0.781   0.781   0.781   0.781   0.781   0.781   0.781   0.781   0.781   0.781   0.781   0.781   0.781   0.781   0.781   0.781   0.781   0.781   0.781   0.781   0.781   0.781   0.781   0.781   0.781   0.781   0.781   0.781   0.781   0.781   0.781   0.781   0.781   0.781   0.781   0.781   0.781   0.781   0.781   0.781   0.781   0.781   0.781   0.781   0.781   0.781   0.781   0.781   0.781   0.781   0.781   0.781   0.781   0.781   0.781   0.781   0.781   0.781   0.781   0.781   0.781   0.781   0.781   0.781   0.781   0.781   0.781   0.781   0.781   0.781   0.781   0.781   0.781   0.781   0.781   0.781   0.781   0.781   0.781   0.781   0.781   0.781   0.781   0.781   0.781   0.781   0.781   0.781   0.781   0.781   0.781   0.781   0.781   0.781   0.781   0.781   0.781   0.781   0.781   0.781   0.781   0.781   0.781   0.781   0.781   0.781   0.781   0.781   0.781   0.781   0.781   0.781   0.781   0.781   0.781   0.781   0.781   0.781   0.781   0.781   0.781   0.781   0.781   0.781   0.781   0.781   0.781   0.781   0.781   0.781   0.781   0.781   0.781   0.781   0.781   0.781   0.781   0.781   0.781   0.781   0.781   0.781   0.781   0.781   0.781   0.781   0.781   0.781   0.781   0.781   0.781   0.781   0.781   0.781   0.781   0.781   0.781   0.781   0.781   0.781   0.781   0.781   0.781
   103.45    0.781   0.781   0.781   0.781   0.781   0.781   0.781   0.781   0.781   0.781   0.781   0.781   0.781   0.781   0.781   0.781   0.781   0.781   0.781   0.781   0.781   0.781   0.781   0.781   0.781   0.781   0.781   0.781   0.781   0.781   0.781   0.781   0.781   0.781   0.781   0.781   0.781   0.781   0.781   0.781   0.781   0.781   0.781   0.781   0.781   0.781   0.781   0.781   0.781   0.781   0.781   0.781   0.781   0.781   0.781   0.781   0.781   0.781   0.781   0.781   0.781   0.781   0.781   0.781   0.781   0.781   0.781   0.781   0.781   0.781   0.781   0.781   0.781   0.781   0.781   0.781   0.781   0.781   0.781   0.781   0.781   0.781   0.781   0.781   0.781   0.781   0.781   0.781   0.781   0.781   0.781   0.781   0.781   0.781   0.781   0.781   0.781   0.781   0.781   0.781   0.781   0.781   0.781   0.781   0.781   0.781   0.781   0.781   0.781   0.781   0.781   0.781   0.781   0.781   0.781   0.781   0.781   0.781   0.781   0.781   0.781   0.781   0.781   0.781   0.781   0.781   0.781   0.781   0.781   0.781   0.781   0.781   0.781   0.781   0.781   0.781   0.781   0.781   0.781   0.781   0.781   0.781   0.781   0.781   0.781   0.781   0.781   0.781   0.781   0.781   0.781   0.781   0.781   0.781   0.781   0.781   0.781   0.781   0.781   0.781   0.781   0.781   0.781   0.781   0.781   0.781   0.781   0.781   0.781   0.781   0.781   0.781   0.781   0.781   0.781   0.781   0.781   0.781   0.781   0.781   0.781   0.781   0.781   0.781   0.781   0.781   0.781   0.781   0.781   0.781   0.781   0.781   0.781   0.781   0.781   0.781   0.781   0.781   0.781   0.781
    93.10    0.781   0.781   0.781   0.781   0.781   0.781   0.781   0.781   0.781   0.781   0.781   0.781   0.781   0.781   0.781   0.781   0.781   0.781   0.781   0.781   0.781   0.781   0.781   0.781   0.781   0.781   0.781   0.781   0.781   0.781   0.781   0.781   0.781   0.781   0.781   0.781   0.781   0.781   0.781   0.781   0.781   0.781   0.781   0.781   0.781   0.781   0.781   0.781   0.781   0.781   0.781   0.781   0.781   0.781   0.781   0.781   0.781   0.781   0.781   0.781   0.781   0.781   0.781   0.781   0.781   0.781   0.781   0.781   0.781   0.781   0.781   0.781   0.781   0.781   0.781   0.781   0.781   0.781   0.781   0.781   0.781   0.781   0.781   0.781   0.781   0.781   0.781   0.781   0.781   0.781   0.781   0.781   0.781   0.781   0.781   0.781   0.781   0.781   0.781   0.781   0.781   0.781   0.781   0.781   0.781   0.781   0.781   0.781   0.781   0.781   0.781   0.781   0.781   0.781   0.781   0.781   0.781   0.781   0.781   0.781   0.781   0.781   0.781   0.781   0.781   0.781   0.781   0.781   0.781   0.781   0.781   0.781   0.781   0.781   0.781   0.781   0.781   0.781   0.781   0.781   0.781   0.781   0.781   0.781   0.781   0.781   0.781   0.781   0.781   0.781   0.781   0.781   0.781   0.781   0.781   0.781   0.781   0.781   0.781   0.781   0.781   0.781   0.781   0.781   0.781   0.781   0.781   0.781   0.781   0.781   0.781   0.781   0.781   0.781   0.781   0.781   0.781   0.781   0.781   0.781   0.781   0.781   0.781   0.781   0.781   0.781   0.781   0.781   0.781   0.781   0.781   0.781   0.781   0.781   0.781   0.781   0.781   0.781   0.781   0.781
    82.76    0.781   0.781   0.781   0.781   0.781   0.781   0.781   0.781   0.781   0.781   0.781   0.781   0.781   0.781   0.781   0.781   0.781   0.781   0.781   0.781   0.781   0.781   0.781   0.781   0.781   0.781   0.781   0.781   0.781   0.781   0.781   0.781   0.781   0.781   0.781   0.781   0.781   0.781   0.781   0.781   0.781   0.781   0.781   0.781   0.781   0.781   0.781   0.781   0.781   0.781   0.781   0.781   0.781   0.781   0.781   0.781   0.781   0.781   0.781   0.781   0.781   0.781   0.781   0.781   0.781   0.781   0.781   0.781   0.781   0.781   0.781   0.781   0.781   0.781   0.781   0.781   0.781   0.781   0.781   0.781   0.781   0.781   0.781   0.781   0.781   0.781   0.781   0.781   0.781   0.781   0.781   0.781   0.781   0.781   0.781   0.781   0.781   0.781   0.781   0.781   0.781   0.781   0.781   0.781   0.781   0.781   0.781   0.781   0.781   0.781   0.781   0.781   0.781   0.781   0.781   0.781   0.781   0.781   0.781   0.781   0.781   0.781   0.781   0.781   0.781   0.781   0.781   0.781   0.781   0.781   0.781   0.781   0.781   0.781   0.781   0.781   0.781   0.781   0.781   0.781   0.781   0.781   0.781   0.781   0.781   0.781   0.781   0.781   0.781   0.781   0.781   0.781   0.781   0.781   0.781   0.781   0.781   0.781   0.781   0.781   0.781   0.781   0.781   0.781   0.781   0.781   0.781   0.781   0.781   0.781   0.781   0.781   0.781   0.781   0.781   0.781   0.781   0.781   0.781   0.781   0.781   0.781   0.781   0.781   0.781   0.781   0.781   0.781   0.781   0.781   0.781   0.781   0.781   0.781   0.781   0.781   0.781   0.781   0.781   0.781
    72.41    0.781   0.781   0.781   0.781   0.781   0.781   0.781   0.781   0.781   0.781   0.781   0.781   0.781   0.781   0.781   0.781   0.781   0.781   0.781   0.781   0.781   0.781   0.781   0.781   0.781   0.781   0.781   0.781   0.781   0.781   0.781   0.781   0.781   0.781   0.781   0.781   0.781   0.781   0.781   0.781   0.781   0.781   0.781   0.781   0.781   0.781   0.781   0.781   0.781   0.781   0.781   0.781   0.781   0.781   0.781   0.781   0.781   0.781   0.781   0.781   0.781   0.781   0.781   0.781   0.781   0.781   0.781   0.781   0.781   0.781   0.781   0.781   0.781   0.781   0.781   0.781   0.781   0.781   0.781   0.781   0.781   0.781   0.781   0.781   0.781   0.781   0.781   0.781   0.781   0.781   0.781   0.781   0.781   0.781   0.781   0.781   0.781   0.781   0.781   0.781   0.781   0.781   0.781   0.781   0.781   0.781   0.781   0.781   0.781   0.781   0.781   0.781   0.781   0.781   0.781   0.781   0.781   0.781   0.781   0.781   0.781   0.781   0.781   0.781   0.781   0.781   0.781   0.781   0.781   0.781   0.781   0.781   0.781   0.781   0.781   0.781   0.781   0.781   0.781   0.781   0.781   0.781   0.781   0.781   0.781   0.781   0.781   0.781   0.781   0.781   0.781   0.781   0.781   0.781   0.781   0.781   0.781   0.781   0.781   0.781   0.781   0.781   0.781   0.781   0.781   0.781   0.781   0.781   0.781   0.781   0.781   0.781   0.781   0.781   0.781   0.781   0.781   0.781   0.781   0.781   0.781   0.781   0.781   0.781   0.781   0.781   0.781   0.781   0.781   0.781   0.781   0.781   0.781   0.781   0.781   0.781   0.781   0.781   0.781   0.781
    62.07    0.781   0.781   0.781   0.781   0.781   0.781   0.781   0.781   0.781   0.781   0.781   0.781   0.781   0.781   0.781   0.781   0.781   0.781   0.781   0.781   0.781   0.781   0.781   0.781   0.781   0.781   0.781   0.781   0.781   0.781   0.781   0.781   0.781   0.781   0.781   0.781   0.781   0.781   0.781   0.781   0.781   0.781   0.781   0.781   0.781   0.781   0.781   0.781   0.781   0.781   0.781   0.781   0.781   0.781   0.781   0.781   0.781   0.781   0.781   0.781   0.781   0.781   0.781   0.781   0.781   0.781   0.781   0.781   0.781   0.781   0.781   0.781   0.781   0.781   0.781   0.781   0.781   0.781   0.781   0.781   0.781   0.781   0.781   0.781   0.781   0.781   0.781   0.781   0.781   0.781   0.781   0.781   0.781   0.781   0.781   0.781   0.781   0.781   0.781   0.781   0.781   0.781   0.781   0.781   0.781   0.781   0.781   0.781   0.781   0.781   0.781   0.781   0.781   0.781   0.781   0.781   0.781   0.781   0.781   0.781   0.781   0.781   0.781   0.781   0.781   0.781   0.781   0.781   0.781   0.781   0.781   0.781   0.781   0.781   0.781   0.781   0.781   0.781   0.781   0.781   0.781   0.781   0.781   0.781   0.781   0.781   0.781   0.781   0.781   0.781   0.781   0.781   0.781   0.781   0.781   0.781   0.781   0.781   0.781   0.781   0.781   0.781   0.781   0.781   0.781   0.781   0.781   0.781   0.781   0.781   0.781   0.781   0.781   0.781   0.781   0.781   0.781   0.781   0.781   0.781   0.781   0.781   0.781   0.781   0.781   0.781   0.781   0.781   0.781   0.781   0.781   0.781   0.781   0.781   0.781   0.781   0.781   0.781   0.781   0.781
    51.72    0.781   0.781   0.781   0.781   0.781   0.781   0.781   0.781   0.781   0.781   0.781   0.781   0.781   0.781   0.781   0.781   0.781   0.781   0.781   0.781   0.781   0.781   0.781   0.781   0.781   0.781   0.781   0.781   0.781   0.781   0.781   0.781   0.781   0.781   0.781   0.781   0.781   0.781   0.781   0.781   0.781   0.781   0.781   0.781   0.781   0.781   0.781   0.781   0.781   0.781   0.781   0.781   0.781   0.781   0.781   0.781   0.781   0.781   0.781   0.781   0.781   0.781   0.781   0.781   0.781   0.781   0.781   0.781   0.781   0.781   0.781   0.781   0.781   0.781   0.781   0.781   0.781   0.781   0.781   0.781   0.781   0.781   0.781   0.781   0.781   0.781   0.781   0.781   0.781   0.781   0.781   0.781   0.781   0.781   0.781   0.781   0.781   0.781   0.781   0.781   0.781   0.781   0.781   0.781   0.781   0.781   0.781   0.781   0.781   0.781   0.781   0.781   0.781   0.781   0.781   0.781   0.781   0.781   0.781   0.781   0.781   0.781   0.781   0.781   0.781   0.781   0.781   0.781   0.781   0.781   0.781   0.781   0.781   0.781   0.781   0.781   0.781   0.781   0.781   0.781   0.781   0.781   0.781   0.781   0.781   0.781   0.781   0.781   0.781   0.781   0.781   0.781   0.781   0.781   0.781   0.781   0.781   0.781   0.781   0.781   0.781   0.781   0.781   0.781   0.781   0.781   0.781   0.781   0.781   0.781   0.781   0.781   0.781   0.781   0.781   0.781   0.781   0.781   0.781   0.781   0.781   0.781   0.781   0.781   0.781   0.781   0.781   0.781   0.781   0.781   0.781   0.781   0.781   0.781   0.781   0.781   0.781   0.781   0.781   0.781
    41.38    0.781   0.781   0.781   0.781   0.781   0.781   0.781   0.781   0.781   0.781   0.781   0.781   0.781   0.781   0.781   0.781   0.781   0.781   0.781   0.781   0.781   0.781   0.781   0.781   0.781   0.781   0.781   0.781   0.781   0.781   0.781   0.781   0.781   0.781   0.781   0.781   0.781   0.781   0.781   0.781   0.781   0.781   0.781   0.781   0.781   0.781   0.781   0.781   0.781   0.781   0.781   0.781   0.781   0.781   0.781   0.781   0.781   0.781   0.781   0.781   0.781   0.781   0.781   0.781   0.781   0.781   0.781   0.781   0.781   0.781   0.781   0.781   0.781   0.781   0.781   0.781   0.781   0.781   0.781   0.781   0.781   0.781   0.781   0.781   0.781   0.781   0.781   0.781   0.781   0.781   0.781   0.781   0.781   0.781   0.781   0.781   0.781   0.781   0.781   0.781   0.781   0.781   0.781   0.781   0.781   0.781   0.781   0.781   0.781   0.781   0.781   0.781   0.781   0.781   0.781   0.781   0.781   0.781   0.781   0.781   0.781   0.781   0.781   0.781   0.781   0.781   0.781   0.781   0.781   0.781   0.781   0.781   0.781   0.781   0.781   0.781   0.781   0.781   0.781   0.781   0.781   0.781   0.781   0.781   0.781   0.781   0.781   0.781   0.781   0.781   0.781   0.781   0.781   0.781   0.781   0.781   0.781   0.781   0.781   0.781   0.781   0.781   0.781   0.781   0.781   0.781   0.781   0.781   0.781   0.781   0.781   0.781   0.781   0.781   0.781   0.781   0.781   0.781   0.781   0.781   0.781   0.781   0.781   0.781   0.781   0.781   0.781   0.781   0.781   0.781   0.781   0.781   0.781   0.781   0.781   0.781   0.781   0.781   0.781   0.781
    31.03    0.781   0.781   0.781   0.781   0.781   0.781   0.781   0.781   0.781   0.781   0.781   0.781   0.781   0.781   0.781   0.781   0.781   0.781   0.781   0.781   0.781   0.781   0.781   0.781   0.781   0.781   0.781   0.781   0.781   0.781   0.781   0.781   0.781   0.781   0.781   0.781   0.781   0.781   0.781   0.781   0.781   0.781   0.781   0.781   0.781   0.781   0.781   0.781   0.781   0.781   0.781   0.781   0.781   0.781   0.781   0.781   0.781   0.781   0.781   0.781   0.781   0.781   0.781   0.781   0.781   0.781   0.781   0.781   0.781   0.781   0.781   0.781   0.781   0.781   0.781   0.781   0.781   0.781   0.781   0.781   0.781   0.781   0.781   0.781   0.781   0.781   0.781   0.781   0.781   0.781   0.781   0.781   0.781   0.781   0.781   0.781   0.781   0.781   0.781   0.781   0.781   0.781   0.781   0.781   0.781   0.781   0.781   0.781   0.781   0.781   0.781   0.781   0.781   0.781   0.781   0.781   0.781   0.781   0.781   0.781   0.781   0.781   0.781   0.781   0.781   0.781   0.781   0.781   0.781   0.781   0.781   0.781   0.781   0.781   0.781   0.781   0.781   0.781   0.781   0.781   0.781   0.781   0.781   0.781   0.781   0.781   0.781   0.781   0.781   0.781   0.781   0.781   0.781   0.781   0.781   0.781   0.781   0.781   0.781   0.781   0.781   0.781   0.781   0.781   0.781   0.781   0.781   0.781   0.781   0.781   0.781   0.781   0.781   0.781   0.781   0.781   0.781   0.781   0.781   0.781   0.781   0.781   0.781   0.781   0.781   0.781   0.781   0.781   0.781   0.781   0.781   0.781   0.781   0.781   0.781   0.781   0.781   0.781   0.781   0.781
    20.69    0.781   0.781   0.781   0.781   0.781   0.781   0.781   0.781   0.781   0.781   0.781   0.781   0.781   0.781   0.781   0.781   0.781   0.781   0.781   0.781   0.781   0.781   0.781   0.781   0.781   0.781   0.781   0.781   0.781   0.781   0.781   0.781   0.781   0.781   0.781   0.781   0.781   0.781   0.781   0.781   0.781   0.781   0.781   0.781   0.781   0.781   0.781   0.781   0.781   0.781   0.781   0.781   0.781   0.781   0.781   0.781   0.781   0.781   0.781   0.781   0.781   0.781   0.781   0.781   0.781   0.781   0.781   0.781   0.781   0.781   0.781   0.781   0.781   0.781   0.781   0.781   0.781   0.781   0.781   0.781   0.781   0.781   0.781   0.781   0.781   0.781   0.781   0.781   0.781   0.781   0.781   0.781   0.781   0.781   0.781   0.781   0.781   0.781   0.781   0.781   0.781   0.781   0.781   0.781   0.781   0.781   0.781   0.781   0.781   0.781   0.781   0.781   0.781   0.781   0.781   0.781   0.781   0.781   0.781   0.781   0.781   0.781   0.781   0.781   0.781   0.781   0.781   0.781   0.781   0.781   0.781   0.781   0.781   0.781   0.781   0.781   0.781   0.781   0.781   0.781   0.781   0.781   0.781   0.781   0.781   0.781   0.781   0.781   0.781   0.781   0.781   0.781   0.781   0.781   0.781   0.781   0.781   0.781   0.781   0.781   0.781   0.781   0.781   0.781   0.781   0.781   0.781   0.781   0.781   0.781   0.781   0.781   0.781   0.781   0.781   0.781   0.781   0.781   0.781   0.781   0.781   0.781   0.781   0.781   0.781   0.781   0.781   0.781   0.781   0.781   0.781   0.781   0.781   0.781   0.781   0.781   0.781   0.781   0.781   0.781
    10.34    0.781   0.781   0.781   0.781   0.781   0.781   0.781   0.781   0.781   0.781   0.781   0.781   0.781   0.781   0.781   0.781   0.781   0.781   0.781   0.781   0.781   0.781   0.781   0.781   0.781   0.781   0.781   0.781   0.781   0.781   0.781   0.781   0.781   0.781   0.781   0.781   0.781   0.781   0.781   0.781   0.781   0.781   0.781   0.781   0.781   0.781   0.781   0.781   0.781   0.781   0.781   0.781   0.781   0.781   0.781   0.781   0.781   0.781   0.781   0.781   0.781   0.781   0.781   0.781   0.781   0.781   0.781   0.781   0.781   0.781   0.781   0.781   0.781   0.781   0.781   0.781   0.781   0.781   0.781   0.781   0.781   0.781   0.781   0.781   0.781   0.781   0.781   0.781   0.781   0.781   0.781   0.781   0.781   0.781   0.781   0.781   0.781   0.781   0.781   0.781   0.781   0.781   0.781   0.781   0.781   0.781   0.781   0.781   0.781   0.781   0.781   0.781   0.781   0.781   0.781   0.781   0.781   0.781   0.781   0.781   0.781   0.781   0.781   0.781   0.781   0.781   0.781   0.781   0.781   0.781   0.781   0.781   0.781   0.781   0.781   0.781   0.781   0.781   0.781   0.781   0.781   0.781   0.781   0.781   0.781   0.781   0.781   0.781   0.781   0.781   0.781   0.781   0.781   0.781   0.781   0.781   0.781   0.781   0.781   0.781   0.781   0.781   0.781   0.781   0.781   0.781   0.781   0.781   0.781   0.781   0.781   0.781   0.781   0.781   0.781   0.781   0.781   0.781   0.781   0.781   0.781   0.781   0.781   0.781   0.781   0.781   0.781   0.781   0.781   0.781   0.781   0.781   0.781   0.781   0.781   0.781   0.781   0.781   0.781   0.781
     0.00    0.781   0.781   0.781   0.781   0.781   0.781   0.781   0.781   0.781   0.781   0.781   0.781   0.781   0.781   0.781   0.781   0.781   0.781   0.781   0.781   0.781   0.781   0.781   0.781   0.781   0.781   0.781   0.781   0.781   0.781   0.781   0.781   0.781   0.781   0.781   0.781   0.781   0.781   0.781   0.781   0.781   0.781   0.781   0.781   0.781   0.781   0.781   0.781   0.781   0.781   0.781   0.781   0.781   0.781   0.781   0.781   0.781   0.781   0.781   0.781   0.781   0.781   0.781   0.781   0.781   0.781   0.781   0.781   0.781   0.781   0.781   0.781   0.781   0.781   0.781   0.781   0.781   0.781   0.781   0.781   0.781   0.781   0.781   0.781   0.781   0.781   0.781   0.781   0.781   0.781   0.781   0.781   0.781   0.781   0.781   0.781   0.781   0.781   0.781   0.781   0.781   0.781   0.781   0.781   0.781   0.781   0.781   0.781   0.781   0.781   0.781   0.781   0.781   0.781   0.781   0.781   0.781   0.781   0.781   0.781   0.781   0.781   0.781   0.781   0.781   0.781   0.781   0.781   0.781   0.781   0.781   0.781   0.781   0.781   0.781   0.781   0.781   0.781   0.781   0.781   0.781   0.781   0.781   0.781   0.781   0.781   0.781   0.781   0.781   0.781   0.781   0.781   0.781   0.781   0.781   0.781   0.781   0.781   0.781   0.781   0.781   0.781   0.781   0.781   0.781   0.781   0.781   0.781   0.781   0.781   0.781   0.781   0.781   0.781   0.781   0.781   0.781   0.781   0.781   0.781   0.781   0.781   0.781   0.781   0.781   0.781   0.781   0.781   0.781   0.781   0.781   0.781   0.781   0.781   0.781   0.781   0.781   0.781   0.781   0.781

   Mean standard deviation across all grid points:
      u component:    1.295 m/s
      v component:    1.199 m/s
      w component:    0.781 m/s


U-component (X) statistics from the interpolated hub point:

   Mean =   7.6768 m/s
   TI   =  12.6059 %


Processing complete.  36.969 CPU seconds used.
