
This summary file was generated by TurbSim (from OpenFAST-v4.2.0) on 17-Mar-2026 at 16:25:40.


Runtime Options:

1157111396  Random seed #1
    RANLUX  Type of random number generator
         F  Output binary HH turbulence parameters?
         F  Output formatted turbulence parameters?
         F  Output AeroDyn HH files?
         T  Output AeroDyn FF files?
         F  Output BLADED FF files?
         F  Output tower data?
         F  Output HAWC FF files?
         T  Output formatted FF files?
         F  Output coherent turbulence time step file?
 0 -  NONE  IEC turbulence models scaled to exact specified standard deviation


Turbine/Model Specifications:

        30  Vertical grid-point matrix dimension
       200  Horizontal grid-point matrix dimension
     1.000  Time step [seconds]
    90.000  Analysis time [seconds]
    90.000  Usable output time [seconds]
   150.000  Hub height [m]
   300.000  Grid height [m]
  2000.000  Grid width [m]
     0.000  Vertical flow angle [degrees]
     8.000  Horizontal flow angle [degrees]


Meteorological Boundary Conditions:

    IECKAI  IEC Kaimal spectral model
         1  IEC standard: IEC 61400-1 Ed. 3: 2005
         A  IEC turbulence characteristic
       NTM  IEC Normal Turbulence Model
       N/A  IEC Extreme Turbulence Model (ETM) "c" parameter [m/s]
       PL   Wind profile type
    90.000  Reference height [m]
     7.000  Reference wind speed [m/s]
       N/A  Jet height [m]
     0.200  Power law exponent
     0.030  Surface roughness length [m]


Non-IEC Meteorological Boundary Conditions:

       N/A  Site latitude [degrees]
       N/A  Gradient Richardson number
       N/A  Friction or shear velocity [m/s]
       N/A  Mixing layer depth [m]
       N/A  Mean hub u'w' Reynolds stress
       N/A  Mean hub u'v' Reynolds stress
       N/A  Mean hub v'w' Reynolds stress


Spatial Coherence Models:

       IEC  u-component coherence model
      NONE  v-component coherence model
      NONE  w-component coherence model
(   12.000, 0.353E-03)  u-component coherence parameters
                   N/A  v-component coherence parameters
                   N/A  w-component coherence parameters
       N/A  Coherence exponent


You have requested that the following file(s) be generated:

   Generator_Ambient/TurbSim1.bts (AeroDyn/TurbSim full-field wind file)
   Generator_Ambient/TurbSim1.u (formatted full-field U-component file)
   Generator_Ambient/TurbSim1.v (formatted full-field V-component file)
   Generator_Ambient/TurbSim1.w (formatted full-field W-component file)


Turbulence Simulation Scaling Parameter Summary:

   Turbulence model used                            =  IEC Kaimal
   Turbulence characteristic                        =  A
   IEC turbulence type                              =  Normal Turbulence Model
   IEC standard                                     =  IEC 61400-1 Ed. 3: 2005
   Mean wind speed at hub height                    =    7.753 m/s
   Expected value of turbulence intensity at 15 m/s =   16.000%
   Characteristic value of standard deviation       =    1.826 m/s
   Turbulence scale                                 =   42.000 m
   u-component integral scale                       =  340.200 m
   Coherency scale                                  =  340.200 m
   Characteristic value of hub turbulence intensity =   23.557%
   Gradient Richardson number                       =    0.000

   Wind profile type                                =  Power law
   Power law exponent                               =    0.200
   Mean shear across rotor disk                     =    0.030 (m/s)/m
   Assumed rotor diameter                           =  300.000 m
   Surface roughness length                         =    0.030 m

   Nyquist frequency of turbulent wind field        =    0.500 Hz

   Number of time steps in the FFT                  =       90
   Number of time steps output                      =       90
   Number of points simulated                       =     6001


Mean Flow Angles:

   Vertical   =   0.0 degrees
   Horizontal =   8.0 degrees

Mean Wind Speed Profile:

   Height    Wind Speed   Horizontal Angle  Vertical Angle  U-comp (X)   V-comp (Y)   W-comp (Z)
     (m)        (m/s)         (degrees)       (degrees)       (m/s)        (m/s)        (m/s)   
   ------    ----------   ----------------  --------------  ----------   ----------   ----------
    300.0        8.91            8.00            0.00          8.82         1.24         0.00
    289.7        8.84            8.00            0.00          8.76         1.23         0.00
    279.3        8.78            8.00            0.00          8.69         1.22         0.00
    269.0        8.71            8.00            0.00          8.63         1.21         0.00
    258.6        8.65            8.00            0.00          8.56         1.20         0.00
    248.3        8.58            8.00            0.00          8.49         1.19         0.00
    237.9        8.50            8.00            0.00          8.42         1.18         0.00
    227.6        8.43            8.00            0.00          8.35         1.17         0.00
    217.2        8.35            8.00            0.00          8.27         1.16         0.00
    206.9        8.27            8.00            0.00          8.19         1.15         0.00
    196.6        8.18            8.00            0.00          8.10         1.14         0.00
    186.2        8.10            8.00            0.00          8.02         1.13         0.00
    175.9        8.00            8.00            0.00          7.93         1.11         0.00
    165.5        7.91            8.00            0.00          7.83         1.10         0.00
    155.2        7.81            8.00            0.00          7.73         1.09         0.00
    150.0        7.75            8.00            0.00          7.68         1.08         0.00
    144.8        7.70            8.00            0.00          7.62         1.07         0.00
    134.5        7.59            8.00            0.00          7.51         1.06         0.00
    124.1        7.47            8.00            0.00          7.39         1.04         0.00
    113.8        7.34            8.00            0.00          7.26         1.02         0.00
    103.4        7.20            8.00            0.00          7.13         1.00         0.00
     93.1        7.05            8.00            0.00          6.98         0.98         0.00
     82.8        6.88            8.00            0.00          6.82         0.96         0.00
     72.4        6.70            8.00            0.00          6.64         0.93         0.00
     62.1        6.50            8.00            0.00          6.44         0.90         0.00
     51.7        6.27            8.00            0.00          6.20         0.87         0.00
     41.4        5.99            8.00            0.00          5.93         0.83         0.00
     31.0        5.66            8.00            0.00          5.60         0.79         0.00
     20.7        5.22            8.00            0.00          5.17         0.73         0.00
     10.3        4.54            8.00            0.00          4.50         0.63         0.00
      0.0        0.45            8.00            0.00          0.45         0.06         0.00


Harvested Random Seeds after Generation of the Random Numbers:

      7527380 K 1
            0 K 2


Hub-Height Simulated Turbulence Statistical Summary:

   Type of Wind        Min (m/s)   Mean (m/s)    Max (m/s)  Sigma (m/s)       TI (%)
   ----------------    ---------   ----------    ---------  -----------       ------
   Longitudinal (u)         4.23         7.75        10.82        1.318       17.001
   Lateral (v)             -2.88         0.00         2.33        1.199       15.470
   Vertical (w)            -1.72         0.00         1.86        0.781       10.068
   U component              3.95         7.68        10.67        1.370       17.843
   V component             -1.62         1.08         3.34        1.140       14.846
   W component             -1.72         0.00         1.86        0.781       10.167
   Horizontal (U&V)         4.57         7.85        10.84        1.313       16.740
   Total                    4.59         7.89        10.86        1.309       16.596

                       Min Reynolds     Mean Reynolds    Max Reynolds    Correlation
   Product             Stress (m/s)^2   Stress (m/s)^2   Stress (m/s)^2  Coefficient
   ----------------    --------------   --------------   --------------  -----------
   u'w'                     -2.229             0.176             2.384         0.171
   u'v'                     -6.642            -0.526             3.083        -0.333
   v'w'                     -3.929            -0.248             1.895        -0.265


   Friction Velocity (Ustar)  =      0.420 m/s
   Maximum Instantaneous TKE  =      7.771 (m/s)^2
   Maximum Instantaneous CTKE =      3.391 (m/s)^2


Grid Point Variance Summary:

   Y-coord-1000.00 -989.95 -979.90 -969.85 -959.80 -949.75 -939.70 -929.65 -919.60 -909.55 -899.50 -889.45 -879.40 -869.35 -859.30 -849.25 -839.20 -829.15 -819.10 -809.05 -798.99 -788.94 -778.89 -768.84 -758.79 -748.74 -738.69 -728.64 -718.59 -708.54 -698.49 -688.44 -678.39 -668.34 -658.29 -648.24 -638.19 -628.14 -618.09 -608.04 -597.99 -587.94 -577.89 -567.84 -557.79 -547.74 -537.69 -527.64 -517.59 -507.54 -497.49 -487.44 -477.39 -467.34 -457.29 -447.24 -437.19 -427.14 -417.09 -407.04 -396.98 -386.93 -376.88 -366.83 -356.78 -346.73 -336.68 -326.63 -316.58 -306.53 -296.48 -286.43 -276.38 -266.33 -256.28 -246.23 -236.18 -226.13 -216.08 -206.03 -195.98 -185.93 -175.88 -165.83 -155.78 -145.73 -135.68 -125.63 -115.58 -105.53  -95.48  -85.43  -75.38  -65.33  -55.28  -45.23  -35.18  -25.13  -15.08   -5.03    5.03   15.08   25.13   35.18   45.23   55.28   65.33   75.38   85.43   95.48  105.53  115.58  125.63  135.68  145.73  155.78  165.83  175.88  185.93  195.98  206.03  216.08  226.13  236.18  246.23  256.28  266.33  276.38  286.43  296.48  306.53  316.58  326.63  336.68  346.73  356.78  366.83  376.88  386.93  396.98  407.04  417.09  427.14  437.19  447.24  457.29  467.34  477.39  487.44  497.49  507.54  517.59  527.64  537.69  547.74  557.79  567.84  577.89  587.94  597.99  608.04  618.09  628.14  638.19  648.24  658.29  668.34  678.39  688.44  698.49  708.54  718.59  728.64  738.69  748.74  758.79  768.84  778.89  788.94  798.99  809.05  819.10  829.15  839.20  849.25  859.30  869.35  879.40  889.45  899.50  909.55  919.60  929.65  939.70  949.75  959.80  969.85  979.90  989.95 1000.00

   Height   Standard deviation at grid points for the u component:
   300.00    0.922   1.360   1.345   1.211   1.225   1.000   1.173   1.336   1.375   1.399   1.469   1.344   1.410   1.723   1.206   1.252   1.613   1.639   1.819   1.571   1.679   1.263   1.132   1.443   1.133   1.374   1.643   1.407   1.186   1.117   0.963   1.019   1.037   0.973   1.197   1.183   1.332   1.020   1.079   1.290   1.404   1.622   1.378   1.580   1.222   1.202   1.195   1.192   1.224   1.123   1.350   1.727   1.256   1.182   1.230   0.895   1.160   0.847   1.000   0.935   0.726   0.823   0.980   1.094   1.303   1.409   1.291   1.135   1.369   1.646   1.556   1.347   1.239   1.468   1.186   1.248   1.258   0.900   1.241   1.568   1.796   1.660   1.508   1.551   1.035   1.169   1.267   1.107   1.198   1.347   1.294   1.085   1.129   1.415   1.231   1.378   1.285   1.336   1.629   1.337   1.149   1.138   1.104   1.068   1.126   1.429   1.268   1.349   1.652   1.745   1.394   1.559   1.471   1.208   1.208   0.782   1.040   1.104   1.148   1.217   1.108   1.247   1.211   1.404   1.711   1.627   1.348   0.942   1.087   1.003   1.140   1.154   1.552   1.689   1.806   2.022   1.738   1.014   1.010   1.127   1.250   1.171   0.858   1.096   1.039   0.968   1.026   0.787   0.975   1.081   1.301   1.242   1.289   0.953   1.392   1.409   1.139   0.853   0.965   1.010   1.056   1.151   1.063   1.081   0.887   1.182   1.139   1.065   0.863   1.123   1.134   1.326   1.359   1.388   1.243   1.188   1.206   1.500   1.359   1.442   1.452   1.752   2.044   1.973   1.763   1.312   1.252   1.313   1.238   1.385   0.998   1.021   1.085   1.324   1.027   1.090   0.957   1.284   1.228   1.430
   289.66    1.278   1.395   1.469   1.414   1.645   1.091   1.358   1.168   1.169   1.049   1.072   1.235   1.286   1.363   1.492   1.033   1.260   1.403   1.656   1.680   1.592   1.134   1.005   1.468   1.088   1.243   1.451   0.988   1.050   1.145   0.947   1.051   1.300   1.164   1.259   1.055   0.845   1.102   0.993   1.221   1.090   1.316   1.395   1.236   1.156   0.992   1.334   1.139   1.181   1.112   1.275   1.416   1.597   1.169   1.085   1.071   1.262   0.992   1.027   1.052   0.924   0.968   1.508   1.334   1.117   1.435   1.507   1.098   1.372   1.389   1.598   1.029   1.014   1.072   1.367   1.246   1.219   1.131   1.299   1.730   1.508   1.511   1.243   1.235   0.999   1.002   1.166   0.855   1.045   0.982   1.484   1.475   1.149   1.262   1.192   1.095   1.308   1.402   1.505   1.074   1.043   1.143   0.950   0.942   1.433   1.337   1.340   1.749   1.908   1.681   1.568   1.598   1.391   1.359   1.102   1.152   1.001   1.152   1.324   1.255   1.448   1.221   1.601   1.348   1.553   1.307   1.130   1.317   1.353   1.654   1.412   1.783   1.845   1.676   1.815   1.747   1.694   1.285   0.982   0.958   1.355   1.124   1.130   1.346   1.181   1.185   1.114   0.800   0.945   0.919   1.119   0.938   1.044   1.116   1.207   1.159   1.094   0.922   1.109   1.238   0.845   1.090   1.044   0.860   0.997   1.228   1.232   1.420   1.115   1.055   1.412   0.979   1.366   1.069   1.061   1.192   1.386   1.392   1.378   1.197   1.528   1.856   1.996   1.451   1.416   0.977   0.815   1.216   1.387   1.513   1.021   1.162   1.291   0.936   1.067   1.337   1.231   1.178   1.481   1.228
   279.31    1.076   1.114   1.323   1.201   1.550   1.537   1.233   1.442   1.300   1.503   1.044   0.873   1.228   1.244   1.368   0.926   1.133   1.440   1.369   1.300   1.587   1.068   1.126   1.284   1.282   1.048   1.150   0.844   1.158   1.296   1.189   1.105   1.142   1.188   0.977   1.034   0.819   1.125   1.201   1.277   1.190   1.475   1.199   1.083   1.291   1.064   1.201   1.085   0.971   0.923   0.912   1.209   1.339   1.330   1.145   0.999   1.194   0.916   0.975   1.132   1.221   1.256   1.753   1.213   1.589   1.346   1.451   1.612   1.639   1.417   1.119   1.354   1.187   1.441   1.203   1.133   1.183   0.985   1.475   1.487   1.752   1.555   1.004   0.875   1.067   1.082   0.999   1.354   0.923   1.020   1.439   1.458   1.167   1.234   1.117   0.943   1.170   1.176   0.975   1.112   1.182   0.924   1.083   0.964   1.571   1.331   1.728   1.700   1.466   1.699   2.138   1.790   1.728   1.385   1.074   1.351   1.190   0.971   1.203   1.580   1.716   1.356   1.566   1.470   1.600   1.477   1.085   1.500   1.741   1.919   1.567   1.508   1.630   1.552   1.562   1.425   1.343   1.255   1.090   0.985   0.940   1.272   1.539   1.297   1.363   1.553   1.364   1.153   0.996   0.961   0.878   1.020   0.904   0.997   0.970   0.926   0.963   1.030   0.945   1.234   1.197   1.205   1.134   1.136   1.228   0.942   1.234   1.190   1.001   1.411   1.212   1.349   1.390   1.278   1.220   1.244   1.050   1.203   1.249   1.342   1.256   1.594   1.721   1.723   1.082   0.916   0.859   1.014   1.072   1.255   1.355   1.212   1.105   1.014   1.465   1.147   1.811   1.574   1.725   1.495
   268.97    1.065   1.009   1.521   1.167   1.563   1.091   1.264   1.625   1.427   1.536   1.438   1.266   1.070   1.259   1.091   1.163   1.278   1.180   1.176   1.211   1.386   1.104   1.233   1.130   0.994   1.234   1.142   1.476   1.285   1.232   1.258   1.466   1.598   1.472   0.997   0.950   1.295   1.205   1.214   1.107   1.050   1.030   1.308   1.236   1.095   1.141   0.904   0.835   0.794   0.838   0.860   0.954   1.225   1.067   1.174   1.195   0.999   0.964   1.096   1.256   1.540   1.253   1.466   1.674   1.746   1.560   1.406   1.316   1.190   1.141   1.271   1.421   0.888   1.222   1.322   1.257   1.342   1.243   1.294   1.546   1.645   1.338   1.182   1.069   1.130   1.131   1.043   1.090   1.240   1.105   1.324   1.175   1.091   1.172   1.115   0.839   0.922   1.137   1.218   1.009   1.086   1.292   0.948   1.023   1.328   1.381   1.728   1.900   2.021   1.846   2.028   2.044   1.590   1.675   1.282   1.279   1.619   1.305   1.141   1.277   1.285   1.690   1.815   1.433   1.217   1.200   0.816   1.174   1.477   1.695   1.918   1.477   1.262   1.550   1.709   1.399   1.314   1.193   1.395   1.266   1.422   1.485   1.114   1.330   1.004   1.167   1.474   1.533   1.114   1.390   1.417   1.193   1.253   1.088   1.035   1.348   1.504   1.586   1.309   1.016   1.059   0.972   0.789   1.136   1.302   1.315   1.166   0.975   1.190   1.206   1.594   1.487   1.238   1.333   1.079   1.029   1.120   1.401   1.171   1.118   1.585   1.646   1.507   1.286   1.128   1.050   1.125   1.263   1.034   1.170   1.177   1.183   1.099   1.259   1.481   1.231   1.838   2.179   1.865   1.695
   258.62    1.154   1.206   1.372   1.429   1.285   1.397   1.281   1.365   1.358   1.201   1.198   0.851   1.148   1.294   1.064   0.896   1.127   1.319   1.237   0.978   1.104   1.129   1.081   1.033   1.265   1.589   1.648   1.637   1.105   0.991   1.449   1.684   1.370   1.517   1.270   0.997   1.083   1.213   1.279   1.009   1.017   1.220   1.232   1.242   1.246   1.196   1.049   0.959   1.165   1.166   0.995   1.104   1.076   1.142   1.168   1.177   1.098   0.880   0.837   1.097   1.341   1.282   1.357   1.442   1.491   1.495   1.349   1.003   1.218   1.163   1.023   1.305   1.062   1.240   1.201   1.039   1.188   1.072   1.290   1.169   1.211   0.970   1.306   1.478   1.286   1.197   1.091   0.892   1.100   0.985   1.319   1.021   1.113   0.844   1.174   0.994   1.046   1.038   1.173   0.972   1.165   1.231   0.828   0.919   1.104   1.243   1.345   1.479   1.453   1.869   1.961   1.845   1.851   1.645   1.101   1.415   1.605   1.415   1.220   1.609   1.313   1.561   1.501   1.338   1.259   0.970   0.889   1.260   1.556   1.912   1.668   1.500   1.617   1.727   1.616   1.358   1.489   1.255   1.538   0.954   1.239   1.195   0.887   0.968   1.053   0.924   1.269   1.255   1.276   1.385   1.373   1.276   0.991   1.024   1.369   1.663   1.773   1.599   1.746   1.320   1.070   1.017   1.052   1.086   1.234   1.311   1.444   1.505   1.325   1.836   1.602   1.580   2.232   1.860   1.622   1.249   1.070   1.317   1.502   1.533   1.517   1.525   1.185   1.338   1.347   1.283   1.223   1.121   1.146   0.772   1.145   1.297   1.068   1.351   1.463   1.370   1.750   2.191   2.474   2.422
   248.28    1.195   1.055   1.145   1.033   1.011   1.224   1.297   1.194   1.491   1.325   1.313   1.202   1.465   1.238   1.008   1.185   1.185   0.983   1.117   0.853   1.095   1.119   1.044   1.211   1.629   1.456   1.743   1.619   1.176   1.318   1.470   1.973   1.568   1.590   1.656   1.512   1.149   1.078   1.321   1.000   1.242   1.140   1.015   1.029   1.231   0.994   1.123   1.336   1.310   1.240   1.158   1.351   1.339   1.237   1.075   1.220   1.349   1.234   0.963   1.129   1.127   1.340   1.452   1.387   1.436   1.194   1.200   1.152   0.946   1.109   0.970   1.296   1.265   1.176   1.107   0.930   1.055   1.083   1.131   1.152   1.006   1.392   1.304   1.312   1.149   1.069   0.880   1.034   0.974   1.103   1.325   1.101   0.978   1.150   1.289   1.316   1.007   0.919   0.950   0.909   1.126   1.170   0.942   1.101   1.285   1.176   1.452   1.217   1.222   1.703   1.629   1.752   1.574   1.638   1.297   1.223   1.394   1.566   1.327   1.610   1.695   1.445   1.261   1.325   1.078   0.949   1.314   1.659   1.626   1.796   1.890   2.022   1.875   1.394   1.450   1.227   1.545   1.315   1.374   1.099   1.362   1.235   1.014   0.990   0.892   0.913   1.153   0.928   1.092   1.279   1.164   1.029   0.778   1.159   1.431   1.863   1.653   1.833   1.508   1.235   1.402   1.396   1.011   0.827   0.968   1.111   0.819   1.335   1.438   1.900   1.919   1.916   2.229   2.267   1.921   2.185   1.630   1.179   1.166   1.308   1.372   1.589   1.185   1.170   1.321   1.389   1.153   0.973   1.001   0.950   1.211   0.958   1.204   1.513   1.339   1.869   1.705   1.976   2.173   2.065
   237.93    1.022   1.100   0.800   1.067   1.201   1.750   1.582   1.648   1.475   1.295   1.060   1.090   1.185   0.936   0.990   1.153   1.028   0.962   0.901   1.104   0.983   1.103   1.100   0.991   1.318   1.514   1.785   1.778   1.338   1.507   1.598   1.860   1.905   1.761   1.408   0.917   1.082   1.196   1.095   1.213   1.339   1.312   1.569   1.208   0.961   0.975   1.137   1.379   1.227   1.183   1.043   1.444   1.067   1.019   1.047   1.225   1.309   1.112   1.029   1.177   1.226   1.517   1.365   1.613   1.402   1.107   1.150   1.136   1.145   0.916   1.014   1.018   1.185   1.130   0.996   0.910   0.854   0.952   1.295   0.871   1.124   1.419   1.306   1.246   1.190   1.040   1.150   0.962   0.944   1.115   1.143   1.165   0.957   1.062   1.077   1.162   0.933   1.031   1.118   0.835   0.985   0.843   0.934   1.062   1.246   1.246   1.116   1.010   1.038   1.231   1.465   1.485   1.701   1.782   1.592   1.317   1.296   1.465   1.535   1.135   1.432   1.851   1.315   1.483   1.310   1.056   1.105   1.544   1.911   1.779   1.673   1.666   1.826   1.617   1.280   1.412   1.647   1.332   1.340   0.917   1.023   0.892   0.849   1.012   0.887   1.082   1.085   1.171   0.994   1.376   1.545   1.295   1.502   1.298   1.591   1.622   1.756   1.705   1.434   1.256   1.327   1.002   0.929   1.057   0.820   0.849   0.742   1.341   1.696   1.873   1.961   1.979   2.019   1.871   1.673   2.140   1.845   1.448   0.978   1.504   1.687   1.546   1.151   1.011   1.113   1.292   1.100   1.059   1.317   1.296   1.159   0.981   1.034   1.047   1.422   1.762   1.939   2.025   1.637   1.706
   227.59    1.482   1.114   0.996   1.108   1.155   1.622   1.840   1.507   1.672   1.544   0.888   0.855   1.068   1.050   1.190   1.032   0.980   1.215   1.020   0.985   0.932   1.017   0.791   1.052   1.395   1.647   1.505   1.436   1.214   1.407   1.322   1.559   1.493   1.512   1.112   1.222   1.156   1.128   0.970   1.094   1.220   1.072   1.209   1.213   1.218   1.075   1.163   1.349   0.933   0.930   1.142   1.410   1.249   1.297   1.131   1.776   1.425   1.382   1.151   1.225   1.353   1.525   1.668   1.534   1.163   1.198   1.610   1.613   1.236   1.201   1.071   0.825   1.115   1.001   0.911   0.982   1.134   1.165   1.202   1.109   1.327   1.228   1.059   1.027   0.854   0.784   1.148   1.139   1.050   0.906   1.120   1.048   1.039   1.043   1.213   1.095   0.996   0.882   1.244   1.179   1.075   1.049   0.908   1.050   1.118   1.182   1.167   1.087   1.252   1.017   1.132   1.061   1.139   1.318   1.248   1.454   1.307   1.015   1.134   1.327   1.541   1.882   1.811   1.784   1.292   0.926   1.233   1.454   1.780   1.836   1.942   1.734   1.545   1.447   1.251   1.414   1.249   1.189   1.111   0.824   0.895   0.905   1.050   1.119   1.091   1.113   1.175   1.059   1.301   1.580   1.591   1.549   1.657   1.573   1.637   0.955   1.393   1.398   1.382   1.428   1.368   1.156   0.829   1.075   1.120   1.100   1.248   1.505   1.863   1.938   1.609   1.780   1.625   1.714   2.062   2.165   2.125   1.965   1.236   1.549   1.636   1.311   1.237   1.176   1.494   1.342   1.190   1.108   1.260   1.081   1.053   0.885   1.150   0.838   1.108   1.472   1.596   1.537   1.503   1.543
   217.24    1.443   1.464   1.401   1.165   0.773   1.301   1.724   1.802   1.640   1.296   1.194   0.795   0.931   1.116   1.086   0.971   1.011   1.261   0.872   1.070   1.110   1.110   1.181   0.859   0.960   1.150   1.308   1.314   1.206   1.040   1.241   1.428   1.313   1.311   1.225   1.360   1.016   1.149   1.104   1.400   1.364   1.287   1.383   0.908   1.081   1.134   1.124   1.037   1.135   0.880   1.186   1.047   1.300   1.267   1.585   1.751   1.748   1.244   1.242   1.509   1.098   1.356   1.358   0.775   1.338   1.266   1.544   1.342   1.364   1.135   1.024   0.879   0.911   0.953   1.230   0.998   1.199   0.985   1.016   1.242   1.384   1.069   1.156   1.330   1.234   1.269   1.313   0.883   1.018   0.979   1.081   1.006   1.033   1.024   1.114   0.946   0.831   0.856   1.157   1.350   1.153   1.043   0.916   0.903   1.192   1.386   1.174   1.403   1.522   1.044   1.111   0.929   0.973   1.134   1.193   1.156   1.341   1.071   1.162   1.389   1.349   1.581   1.645   1.647   1.540   0.959   1.130   1.067   1.276   1.743   1.682   1.572   1.514   1.647   1.363   1.143   1.108   1.147   1.124   1.060   0.905   0.872   1.131   1.062   1.144   1.020   1.102   1.256   1.177   1.360   1.399   1.820   1.845   1.501   1.266   1.086   1.359   1.169   1.090   1.113   1.103   1.120   1.218   1.142   1.172   0.910   1.045   1.322   1.497   1.572   1.674   1.669   1.655   1.770   1.638   1.902   1.861   1.460   1.560   1.648   1.631   1.773   1.462   0.966   1.292   1.219   1.159   0.972   0.948   1.198   1.451   1.590   1.172   0.990   0.898   1.218   1.432   1.518   1.335   1.501
   206.90    1.696   1.903   1.311   1.195   0.943   1.305   1.564   1.452   1.455   1.318   0.894   1.072   1.046   0.971   1.126   1.042   1.102   1.061   1.192   0.782   0.966   1.007   1.323   1.090   1.186   1.415   1.051   1.027   1.084   0.988   1.188   1.251   0.841   1.024   1.058   1.048   1.180   1.109   1.515   1.388   1.511   1.404   1.163   1.081   1.203   1.404   1.347   1.324   1.018   1.011   1.198   1.034   0.961   1.075   1.460   1.583   1.386   1.087   1.093   1.097   1.049   0.823   1.051   0.941   1.241   1.297   1.401   1.360   0.972   1.001   1.079   1.128   1.000   0.942   0.956   1.112   1.290   1.260   1.300   1.124   1.237   1.086   1.173   1.242   1.350   1.442   1.462   1.187   0.808   1.070   0.839   1.006   1.148   1.170   1.104   1.011   0.966   1.095   1.005   1.372   1.296   1.019   0.901   0.826   1.169   1.159   1.286   1.531   1.517   1.261   1.055   1.156   0.880   0.938   1.195   1.244   1.241   1.000   1.055   0.924   1.086   1.137   1.699   1.341   1.060   0.935   1.309   1.065   1.192   1.540   1.548   1.270   1.143   1.579   1.168   0.991   1.289   1.051   1.191   0.949   0.858   0.836   1.020   1.172   1.185   1.194   1.127   1.214   1.177   1.686   1.636   1.582   1.371   1.273   1.223   0.945   1.338   1.244   1.253   1.000   1.233   1.220   0.973   1.047   1.279   1.362   1.313   1.271   1.256   1.328   1.108   1.336   1.487   1.301   1.546   1.622   1.370   1.528   1.781   1.631   1.747   1.469   1.302   1.684   1.469   1.202   1.484   1.605   1.435   1.329   1.831   1.953   1.410   1.170   0.866   1.090   1.193   1.389   1.596   1.128
   196.55    1.714   1.840   1.643   1.053   0.862   0.958   1.227   1.533   1.598   1.625   1.337   0.987   0.770   0.859   1.005   0.877   1.052   0.771   1.153   0.950   0.985   0.843   1.029   1.265   1.041   1.359   1.167   1.334   0.943   1.031   1.120   1.027   1.034   1.162   0.927   0.975   1.002   1.063   1.419   1.148   1.303   1.475   1.443   1.127   1.425   1.163   1.250   0.940   0.860   1.056   1.101   0.952   1.382   1.400   1.645   1.271   1.456   0.867   0.942   1.045   0.972   1.025   1.098   0.807   0.841   0.997   0.912   1.099   0.963   1.004   0.848   1.152   1.142   0.789   0.807   0.885   1.481   1.658   1.071   1.273   1.301   0.993   1.146   1.132   1.171   1.359   1.388   1.071   0.667   0.737   0.979   1.043   1.018   0.904   1.353   1.494   1.066   1.005   0.971   1.513   1.393   1.197   1.169   0.909   1.016   0.986   1.019   1.303   1.295   1.263   1.182   1.060   1.054   0.912   0.882   1.132   1.251   1.127   0.914   0.927   0.840   1.288   1.760   1.504   1.325   1.022   1.251   1.226   1.168   1.377   1.490   1.547   1.435   1.374   1.118   0.989   1.049   0.884   0.857   0.968   1.053   0.809   1.074   1.358   1.458   1.463   1.442   0.873   1.356   1.657   1.205   1.135   1.088   0.934   1.410   1.320   1.339   1.092   0.922   1.070   1.120   1.173   1.035   0.900   0.865   1.321   1.030   0.952   1.121   1.001   1.086   1.255   1.263   1.236   1.269   1.161   1.162   1.143   1.464   2.152   1.755   1.790   1.864   1.364   1.586   1.538   1.782   1.238   1.608   1.616   1.651   1.648   1.624   1.510   1.114   1.071   1.092   1.284   1.429   1.341
   186.21    1.619   1.564   1.405   1.122   1.116   1.106   1.324   1.390   1.264   1.344   1.102   0.972   0.931   0.951   1.139   0.914   0.999   1.131   1.224   1.456   1.226   1.224   1.067   0.942   1.089   1.217   1.060   1.324   1.243   1.170   1.439   1.249   1.062   1.158   1.222   1.155   1.130   1.264   1.094   1.243   1.217   1.139   1.305   1.168   1.287   1.044   1.275   1.122   1.005   1.079   1.013   1.106   1.164   1.508   1.494   1.943   1.544   0.891   0.866   1.179   1.011   1.181   0.820   1.014   0.920   0.896   0.867   1.026   1.111   1.035   1.521   1.375   1.298   0.998   1.176   1.266   1.594   1.233   1.114   1.116   1.263   0.954   1.256   1.180   1.216   1.155   1.076   1.022   1.021   1.115   1.209   1.109   0.989   1.070   1.357   1.285   1.022   0.930   1.270   1.492   1.680   1.471   1.293   1.288   1.301   1.164   0.914   1.117   1.435   1.513   1.482   1.557   1.093   1.163   1.056   1.075   1.191   1.088   1.085   1.039   1.204   1.381   1.356   1.796   1.428   1.226   1.273   1.168   1.591   1.563   1.507   1.312   1.101   0.769   0.871   1.112   1.012   1.064   1.532   1.148   0.978   0.906   1.101   1.578   1.474   1.306   1.185   0.985   1.356   1.488   1.139   1.021   1.168   1.256   1.243   1.252   1.115   0.811   0.971   0.990   0.864   0.986   1.245   0.930   1.208   1.238   1.105   0.956   1.306   0.984   1.268   1.068   1.215   1.268   1.273   1.464   1.574   1.772   1.785   2.358   2.402   1.733   1.721   1.507   1.364   1.407   1.560   1.269   1.283   1.390   1.298   1.587   1.160   1.387   1.175   1.061   0.849   0.950   1.188   1.534
   175.86    1.490   1.545   1.030   0.815   0.997   0.893   1.171   1.189   0.875   1.118   1.319   0.994   0.992   1.005   1.038   1.097   1.158   1.247   1.147   1.406   1.358   1.003   0.950   0.978   1.200   1.156   1.050   1.311   0.948   1.209   1.241   1.250   1.309   1.520   1.295   1.403   1.213   1.059   1.104   1.026   1.397   1.035   0.854   1.009   0.928   0.985   1.014   1.044   1.298   1.344   1.027   0.887   1.070   1.137   1.484   1.790   1.845   1.303   1.116   1.182   1.409   0.938   0.988   0.893   1.095   0.908   0.987   1.083   1.237   0.987   1.314   1.641   1.422   1.291   1.532   1.674   1.561   1.166   1.189   1.110   1.065   0.874   1.070   1.097   1.150   0.832   1.067   1.294   0.951   1.223   1.204   1.063   1.250   0.898   1.053   1.012   1.186   1.235   0.967   1.041   1.189   1.212   1.189   1.497   1.331   1.310   0.910   0.997   1.021   1.228   1.436   1.556   1.189   1.156   1.144   1.178   1.212   1.211   1.147   0.960   0.895   1.484   1.538   1.658   1.751   1.477   1.422   1.514   1.670   1.470   0.987   1.241   1.087   1.118   1.065   0.949   1.075   1.252   1.550   1.122   1.024   1.136   0.957   1.388   1.381   1.229   1.238   0.996   1.174   1.174   1.255   1.296   1.071   1.209   0.986   0.871   0.857   0.963   1.048   0.990   0.895   0.987   0.963   1.245   1.209   1.453   1.482   1.166   1.138   1.211   0.984   1.393   1.313   1.349   1.496   1.749   2.057   2.344   2.426   2.635   2.382   2.188   1.569   1.169   1.336   1.264   1.256   1.077   1.119   1.005   1.017   1.165   1.281   1.345   1.299   0.964   1.147   1.187   0.971   1.458
   165.52    1.425   1.078   1.025   0.932   1.236   1.408   1.099   0.952   1.405   1.044   1.354   1.542   1.025   1.000   1.212   0.938   1.071   1.041   0.850   1.170   1.290   1.070   1.065   1.118   1.245   1.384   1.428   1.392   1.042   0.956   1.129   0.819   1.171   1.386   1.391   1.247   0.961   1.158   0.986   1.209   1.215   0.948   1.279   0.899   0.830   0.861   0.911   1.202   1.372   1.377   1.274   1.011   0.789   1.014   1.225   1.381   1.491   1.368   1.417   1.058   1.307   1.252   0.913   0.890   1.007   0.953   0.851   1.060   1.131   1.100   1.192   1.448   1.619   1.409   1.488   1.461   1.202   1.279   1.254   1.085   0.891   1.012   0.842   0.987   0.972   1.080   1.064   1.190   1.073   1.012   1.086   0.928   0.988   1.025   1.092   0.776   1.065   1.042   1.057   0.978   0.870   0.907   1.015   1.355   1.547   1.412   1.198   0.965   1.168   1.026   1.050   1.235   1.008   1.065   1.234   0.960   1.052   1.048   0.996   0.994   1.226   1.455   1.632   1.483   1.391   1.222   1.065   1.051   1.158   1.248   1.051   1.007   1.094   1.142   1.089   0.915   0.824   1.079   1.122   1.441   1.237   1.028   0.837   1.133   1.141   1.222   1.080   1.249   1.030   1.162   1.272   1.152   1.010   0.893   0.986   1.044   1.152   1.297   1.045   0.898   1.019   1.122   1.098   1.109   1.397   1.081   1.439   1.604   1.170   1.081   1.224   1.432   1.599   1.670   1.269   1.459   1.936   2.345   2.395   2.285   2.159   2.014   1.365   1.212   0.974   0.982   0.958   0.944   1.033   0.772   1.199   1.235   1.551   1.191   1.177   1.333   1.174   1.109   1.274   1.343
   155.17    1.333   1.346   0.890   1.145   1.512   1.335   1.715   1.221   1.520   1.473   1.367   1.659   1.398   0.983   0.998   1.289   1.011   1.076   0.964   0.868   0.904   1.129   1.214   1.353   1.471   1.417   1.314   1.114   1.239   1.327   1.010   1.367   1.300   1.247   1.453   1.306   1.084   1.038   0.797   1.115   1.026   1.136   1.005   1.067   1.068   1.192   1.025   1.177   1.399   1.240   1.234   1.164   1.158   0.922   1.233   1.638   1.634   1.400   1.454   1.405   1.109   0.953   1.043   0.971   1.002   0.877   0.748   1.153   1.247   1.282   1.568   1.513   1.402   1.349   1.111   1.176   1.151   1.286   1.057   1.035   1.227   0.947   1.265   1.262   1.237   1.151   0.713   0.934   0.812   0.858   0.964   1.000   0.968   0.772   0.753   0.834   0.955   0.833   0.930   1.297   0.989   1.125   0.994   1.158   1.283   1.422   1.402   1.148   1.096   0.900   1.173   1.367   1.133   1.132   1.068   1.218   0.984   0.857   0.990   1.210   1.293   1.437   1.291   1.285   0.935   0.805   0.879   1.008   1.082   1.143   0.789   0.810   0.878   1.045   1.300   1.185   0.905   0.989   1.039   1.164   1.007   1.013   0.779   0.914   1.028   1.293   1.150   1.103   0.989   1.118   1.226   1.166   1.376   1.074   1.226   0.948   1.126   1.115   1.032   0.964   1.146   0.966   1.173   1.226   0.919   1.328   1.272   1.512   1.391   1.587   1.138   1.287   1.236   1.582   1.606   1.415   1.603   2.365   2.151   2.011   1.834   1.931   1.347   1.094   1.070   1.096   1.092   1.022   0.871   1.024   1.095   1.159   1.239   1.549   0.915   1.291   0.998   0.922   1.242   1.222
   144.83    1.070   1.035   0.859   0.997   1.209   1.354   1.616   1.556   1.909   1.712   1.602   1.661   1.675   1.006   1.075   1.283   1.477   1.195   1.095   0.934   1.012   1.121   1.160   1.322   1.431   1.386   1.381   1.495   0.892   1.137   1.014   1.091   1.360   1.408   1.421   1.328   1.219   1.156   0.931   1.061   1.007   1.269   0.891   1.063   1.236   1.332   0.968   0.932   1.040   1.170   1.076   1.132   1.173   1.409   1.325   1.538   1.363   1.068   1.276   1.517   0.998   1.243   1.108   1.176   0.822   0.971   0.740   1.081   1.134   1.165   1.473   1.846   1.516   1.405   1.203   1.216   0.956   1.065   1.097   0.934   1.090   1.301   1.354   1.211   1.066   1.064   0.878   0.953   0.954   0.996   1.016   0.986   1.097   1.130   1.064   1.262   0.879   0.821   0.938   1.159   1.249   1.381   1.165   0.973   1.256   1.302   1.142   1.173   1.128   1.073   0.820   1.298   1.212   1.015   0.835   1.344   1.240   1.112   1.452   1.460   1.295   0.955   1.321   1.361   1.272   1.191   1.068   1.312   0.880   0.886   1.015   1.000   1.069   0.842   1.204   0.972   1.204   1.072   0.966   1.255   1.132   1.012   0.760   1.035   1.128   1.088   0.983   0.852   0.801   0.958   1.266   1.425   1.420   1.574   0.985   1.166   1.137   1.212   1.268   1.080   1.264   1.002   1.419   1.120   0.975   1.277   1.416   1.164   1.500   1.260   1.043   1.175   1.015   1.245   1.608   1.648   2.081   2.533   2.699   2.335   2.238   1.999   1.330   1.115   0.915   1.338   1.265   1.052   0.817   0.869   1.025   1.196   1.284   1.352   1.143   1.215   1.125   1.123   1.295   0.981
   134.48    0.946   1.056   1.164   1.332   1.221   1.160   1.614   1.336   1.472   1.787   1.514   1.763   1.749   1.116   0.939   0.971   1.083   0.926   1.114   0.968   1.005   1.260   1.314   0.868   1.152   1.429   1.654   1.771   1.043   1.112   1.365   1.070   1.369   1.306   1.177   1.209   1.302   1.150   1.268   1.172   1.118   1.404   1.229   0.988   1.211   0.930   0.945   1.018   1.004   0.900   0.891   0.956   1.132   1.461   1.111   1.390   1.366   1.063   1.237   1.515   1.116   0.919   0.903   1.056   0.781   0.921   0.804   1.136   1.110   1.065   1.341   1.467   1.175   1.430   1.440   1.107   0.996   1.163   0.938   0.926   1.041   1.203   1.161   1.187   1.180   1.242   1.382   1.440   1.167   1.116   0.994   0.973   0.825   1.147   1.230   1.077   1.093   1.020   0.887   0.957   1.003   1.242   1.300   0.959   1.225   0.964   0.949   0.867   1.042   1.262   1.097   1.239   1.654   1.459   1.303   1.575   1.351   1.152   1.403   1.070   1.176   1.028   1.180   0.897   0.978   0.915   0.974   1.324   1.002   0.969   1.038   1.190   0.854   1.049   1.221   1.200   1.148   0.923   1.087   1.039   1.043   1.189   1.011   1.230   1.246   1.012   0.934   0.920   1.073   0.970   1.071   1.208   1.544   1.573   1.654   1.486   1.533   1.143   1.065   1.261   1.387   0.972   1.043   0.973   1.100   1.313   1.180   1.102   1.296   1.358   0.908   0.991   0.946   0.956   1.151   1.561   1.813   2.197   2.351   2.167   1.770   1.597   1.397   0.997   1.202   1.297   1.489   1.144   1.167   0.987   1.119   1.019   0.954   0.957   1.158   1.452   1.266   1.041   1.298   1.145
   124.14    0.979   1.167   1.432   1.328   1.335   1.292   1.381   1.474   1.130   1.463   1.478   1.543   1.607   1.189   1.038   1.070   1.313   1.408   1.537   0.981   1.136   1.590   1.422   1.422   1.123   1.347   1.319   1.373   1.271   1.057   1.468   1.507   1.350   1.510   1.197   1.632   1.640   1.102   1.266   0.955   1.069   1.162   1.514   1.174   1.022   0.941   0.948   1.051   0.962   0.864   0.958   1.055   1.163   1.110   1.168   1.051   1.184   1.340   1.526   1.340   1.301   0.932   0.946   1.198   0.981   1.182   1.079   1.294   1.021   1.023   1.184   1.223   1.030   1.434   1.452   0.915   0.956   1.078   1.292   1.213   1.214   1.098   0.896   0.991   1.241   1.281   1.390   1.395   0.879   0.823   0.870   0.792   1.148   1.130   1.067   0.862   0.992   0.819   0.929   1.141   0.971   1.095   1.079   1.334   1.385   1.052   0.987   0.925   0.968   0.938   1.313   1.227   1.457   1.317   1.306   1.516   1.358   1.416   1.376   1.149   0.926   1.029   1.310   1.268   1.313   0.858   1.152   1.344   0.775   0.796   0.997   1.274   1.333   1.256   1.079   1.144   0.799   0.940   0.966   1.075   1.009   1.134   1.021   1.080   1.019   1.137   0.886   0.908   1.052   1.076   1.296   1.589   1.234   1.563   1.718   1.590   1.450   1.257   1.124   1.120   1.160   1.201   1.387   1.183   1.181   0.931   1.294   1.062   1.089   1.227   0.934   1.017   1.112   0.784   0.956   1.157   1.635   2.118   2.176   1.461   1.634   1.407   1.097   1.007   1.138   1.454   1.485   1.555   1.224   0.839   1.135   1.131   0.974   0.946   1.074   1.143   1.246   1.099   0.928   0.984
   113.79    0.966   0.936   0.860   1.253   1.580   1.358   1.141   1.041   0.987   1.299   1.356   1.494   1.226   1.191   1.120   1.149   1.305   1.421   1.642   1.150   1.241   1.337   1.488   1.220   1.301   1.348   1.017   1.021   1.128   1.558   1.509   1.681   1.643   1.734   1.646   1.705   1.704   1.237   1.425   1.288   0.948   1.106   1.546   1.231   1.083   1.320   1.066   1.074   0.996   0.903   1.205   1.348   0.915   1.257   0.719   0.865   1.115   1.088   1.483   1.362   1.519   1.287   1.344   1.543   1.042   1.214   1.268   1.275   0.885   0.914   1.112   1.353   1.505   1.488   1.365   1.017   0.945   0.844   1.087   1.331   1.370   0.935   1.005   0.908   1.276   1.280   1.446   0.972   0.862   1.270   0.885   0.850   1.037   1.178   1.017   1.034   0.905   1.035   1.390   1.239   1.385   1.617   1.577   1.420   1.346   1.165   1.056   1.012   1.247   1.238   1.299   1.092   1.140   1.343   1.270   1.241   1.537   1.141   1.288   1.161   1.221   0.888   1.070   1.153   1.043   1.116   0.999   1.151   1.134   1.098   1.237   1.039   1.200   1.032   1.099   1.035   1.062   0.900   1.207   1.026   0.940   0.894   0.931   1.055   1.191   1.404   0.978   1.154   1.469   1.484   1.418   1.651   1.478   1.686   1.352   1.759   1.923   1.315   1.131   1.089   1.231   1.304   1.538   1.319   1.218   0.982   0.990   1.184   1.186   1.017   1.098   0.848   1.094   0.918   1.066   1.389   1.655   1.784   1.913   1.931   1.368   1.346   1.388   1.288   1.361   1.358   1.375   1.415   1.048   0.874   1.025   0.990   1.099   1.349   1.317   1.050   1.129   0.978   1.053   0.969
   103.45    0.868   0.929   0.883   1.249   1.414   1.337   1.084   0.744   0.891   1.096   1.261   0.978   1.338   0.956   1.277   1.112   1.269   1.194   1.409   1.586   1.505   1.235   1.230   1.255   0.991   0.989   0.896   1.227   1.562   1.445   1.642   1.557   1.373   1.647   1.645   1.671   1.822   1.690   1.494   1.078   1.365   1.045   1.360   1.437   1.600   1.146   1.125   1.311   1.252   1.158   1.273   1.486   1.107   1.349   1.280   1.123   0.893   0.955   1.114   1.159   1.219   1.233   1.364   1.256   1.304   1.339   1.084   1.245   1.073   0.729   0.973   1.225   1.205   1.277   1.159   0.947   0.872   0.915   1.025   1.299   1.293   1.093   1.252   0.923   0.968   1.312   1.218   1.339   0.988   1.163   1.209   0.899   0.904   0.880   0.926   1.031   1.118   1.032   1.151   1.278   1.344   1.522   1.145   1.409   1.403   1.281   1.124   0.952   1.561   1.266   1.354   1.596   1.237   1.368   0.960   1.041   1.279   1.374   1.145   1.445   1.525   0.996   1.127   1.075   1.040   1.077   0.964   1.071   1.056   1.054   1.088   1.156   1.435   1.096   1.081   1.201   1.158   1.099   1.224   1.229   1.048   0.829   0.933   1.081   1.273   1.201   1.421   1.377   1.252   1.551   1.691   1.696   1.588   1.564   1.737   1.790   1.692   1.522   1.401   0.998   1.210   1.292   1.594   1.406   0.821   1.000   1.186   1.168   1.181   1.159   1.005   1.164   1.088   0.842   1.429   1.375   1.791   1.705   1.741   1.335   1.174   1.432   1.416   1.203   1.643   1.599   1.222   1.330   1.234   0.970   0.845   1.083   1.205   1.354   1.494   1.413   1.342   1.172   0.952   1.243
    93.10    0.865   0.945   0.998   1.316   1.256   1.176   1.041   0.745   0.734   0.812   0.889   1.091   1.281   0.949   1.375   1.193   1.161   1.592   1.255   1.478   1.472   1.107   1.119   1.335   1.263   0.945   1.079   1.216   1.358   1.673   1.990   2.019   1.603   1.630   1.851   2.232   2.200   2.058   1.313   1.160   1.369   0.874   0.991   1.239   1.278   1.094   1.555   1.572   1.546   1.184   1.155   1.037   1.207   1.000   1.042   1.251   1.187   0.703   1.045   1.032   1.115   1.271   1.100   1.007   0.867   1.030   1.113   1.040   0.948   0.718   0.812   1.169   0.856   1.086   0.843   0.838   0.977   0.903   1.061   1.189   1.286   1.358   1.213   1.048   0.843   1.227   1.242   1.025   1.058   0.957   1.016   1.118   0.924   0.916   1.063   0.914   0.783   1.082   1.177   1.194   1.368   1.559   1.556   1.170   1.038   1.145   1.282   1.325   1.714   1.683   1.233   1.292   1.192   0.929   1.241   1.104   1.081   1.114   1.337   1.393   1.451   1.248   0.832   1.037   1.200   0.932   0.808   0.874   0.941   0.828   1.037   0.906   1.169   1.161   1.186   1.082   1.037   1.252   1.466   1.214   0.922   1.145   1.013   0.887   0.910   1.080   1.198   1.511   1.483   1.451   1.762   1.910   1.788   1.970   1.952   1.742   1.648   1.035   1.067   1.031   1.204   1.424   1.554   1.482   1.119   1.430   1.167   1.431   1.172   1.177   0.991   1.212   1.096   0.938   1.219   1.451   1.576   1.738   1.612   1.240   1.162   1.020   1.265   1.347   1.708   1.676   1.626   1.683   1.398   1.001   0.799   1.116   1.053   1.220   1.374   1.264   1.259   1.128   1.203   1.101
    82.76    1.366   1.040   0.952   1.058   1.103   1.133   1.077   1.010   1.025   1.050   0.973   0.878   1.233   1.189   1.107   1.540   1.412   1.573   1.714   1.201   1.492   1.306   1.496   1.547   1.190   1.089   1.235   1.118   1.332   1.516   1.700   1.856   1.701   1.674   1.958   1.974   1.902   1.496   1.287   1.383   1.452   1.393   1.124   1.020   1.070   1.259   1.629   1.547   1.132   1.160   1.037   1.047   1.126   1.083   1.056   1.272   1.080   1.080   0.982   1.126   1.454   1.029   1.018   0.937   0.727   0.972   1.078   1.165   1.177   1.084   1.068   1.048   1.096   0.974   0.984   0.712   0.896   0.857   1.151   1.251   0.903   1.017   1.283   1.177   0.879   0.875   1.051   1.148   1.128   0.915   0.960   0.883   0.943   1.007   1.183   1.069   0.939   1.099   1.150   1.087   1.385   1.414   1.515   1.181   0.963   1.287   1.173   1.432   1.607   1.508   1.130   1.108   1.087   1.074   1.143   1.167   1.070   0.907   1.073   1.493   1.356   1.072   0.899   1.027   1.093   1.172   1.194   0.925   1.121   0.858   1.113   0.823   1.332   1.040   0.918   0.892   1.354   1.541   1.678   1.509   1.202   1.299   0.837   0.961   0.890   0.899   1.046   1.555   1.896   1.760   2.119   2.095   2.172   1.766   1.741   1.515   1.468   0.819   0.946   1.220   1.370   1.165   1.402   1.467   1.604   1.797   1.681   1.621   1.244   1.177   1.286   1.124   0.994   0.918   1.069   1.198   1.311   1.298   1.360   1.059   1.014   1.277   1.108   1.425   1.619   1.701   1.701   1.512   1.072   1.047   1.135   1.354   1.038   1.180   1.621   1.546   1.239   1.227   0.912   1.159
    72.41    1.327   1.395   1.037   0.948   0.855   1.168   1.013   0.884   1.076   1.307   0.838   1.223   1.297   1.181   1.259   1.283   1.521   1.542   1.590   1.530   1.376   1.285   1.497   1.860   1.349   1.214   1.134   1.233   1.252   1.213   1.823   1.946   1.693   2.001   2.006   1.749   1.693   1.199   1.176   1.250   1.434   1.143   1.058   1.115   0.937   1.260   1.433   1.571   1.322   1.192   1.017   1.010   0.952   1.337   1.363   1.260   1.377   1.212   1.570   1.610   1.449   1.373   1.389   1.431   1.172   1.070   1.052   0.984   1.394   0.956   1.022   0.975   1.011   0.901   0.934   0.929   0.829   0.937   1.204   1.163   1.135   1.305   1.185   1.005   1.272   1.182   0.986   1.194   0.870   0.780   0.964   0.986   0.862   1.089   1.101   1.176   1.139   1.116   1.195   1.264   1.592   1.335   1.304   1.206   1.192   1.231   1.332   1.237   1.273   1.512   1.151   0.922   0.819   1.005   1.176   1.122   1.190   0.894   1.130   1.247   1.167   0.906   0.906   0.897   0.816   0.855   1.192   1.143   1.257   0.909   1.060   1.198   1.129   1.227   1.046   0.838   1.059   1.237   1.423   1.463   1.170   0.854   1.155   1.153   0.747   1.068   1.256   1.591   1.749   1.745   1.930   1.695   1.709   2.116   1.756   1.774   1.563   1.000   1.083   1.442   1.647   1.345   1.362   1.473   1.575   1.780   1.602   1.394   1.080   1.022   0.938   0.796   1.124   1.024   0.904   0.932   1.348   1.098   1.088   1.091   1.339   1.273   1.496   1.532   1.361   1.414   1.848   1.273   1.146   0.980   0.980   1.096   1.086   1.543   1.680   1.668   1.182   0.934   0.889   1.143
    62.07    1.255   1.143   1.269   1.138   1.257   1.421   1.412   1.108   1.310   1.320   1.174   1.323   1.411   1.202   1.371   1.056   1.390   1.406   1.425   1.403   1.266   1.345   1.496   1.713   1.684   1.299   1.361   1.141   1.010   1.491   1.950   2.179   1.996   1.715   1.902   1.470   1.591   1.170   1.407   1.262   1.208   0.898   1.145   1.031   0.837   1.200   1.374   1.379   1.067   1.007   1.182   1.109   1.198   1.267   1.134   1.429   0.960   1.107   1.233   1.495   0.949   0.989   1.153   1.199   1.421   1.282   1.009   1.377   1.442   1.320   0.872   1.023   0.811   0.934   0.877   1.076   1.325   1.110   1.432   1.309   1.387   1.000   0.722   0.893   1.048   1.060   0.985   0.890   1.078   1.302   0.933   1.197   1.353   1.479   1.330   1.428   1.672   1.496   1.581   1.651   1.673   1.280   1.325   1.280   1.333   1.365   1.202   1.165   1.015   1.191   1.314   1.237   1.012   0.914   1.243   1.076   0.954   1.051   0.978   1.067   0.838   1.140   0.874   0.957   1.160   1.329   1.147   1.105   1.152   1.229   1.163   1.045   0.980   1.200   1.028   1.160   0.971   1.040   1.339   1.037   1.055   0.948   1.265   0.812   0.915   1.164   0.990   1.380   1.610   1.511   1.540   1.740   1.847   1.944   1.736   1.502   1.600   1.257   1.103   1.306   1.479   1.412   1.396   1.716   1.814   1.914   1.807   1.358   0.953   1.029   0.846   0.986   1.030   1.099   1.033   1.424   1.276   1.476   0.990   0.994   1.380   1.218   1.347   1.341   1.030   1.268   1.458   1.456   1.248   0.999   1.156   0.944   1.357   1.639   1.695   1.386   1.337   0.928   0.977   1.083
    51.72    1.387   1.632   1.256   1.624   1.389   1.374   1.573   1.392   1.252   1.552   1.197   1.195   1.144   1.282   1.337   1.405   1.301   1.396   1.201   1.572   1.419   1.097   1.115   1.318   1.247   1.388   1.166   1.020   1.201   1.427   1.695   1.821   1.898   1.612   1.734   1.545   1.716   1.721   1.083   1.291   0.855   1.135   1.075   0.890   0.942   0.993   1.254   1.336   1.492   1.083   1.072   0.947   0.785   1.145   1.256   1.354   1.302   1.049   1.246   1.490   1.477   1.111   1.175   1.198   1.405   1.451   1.395   1.502   1.032   1.129   1.015   1.141   1.106   1.123   1.243   1.452   1.433   1.326   1.451   1.247   1.209   1.415   1.003   1.009   1.188   1.156   1.059   1.108   0.986   1.195   1.613   1.268   1.212   1.269   0.919   0.855   1.464   1.493   1.650   1.989   1.301   1.412   1.458   1.180   0.997   0.943   1.077   1.174   0.829   1.202   1.209   1.050   0.839   1.159   1.143   1.042   0.982   0.901   0.924   0.775   0.880   0.918   1.170   0.881   1.164   1.161   1.073   0.853   1.045   1.009   1.068   1.004   1.162   1.134   0.970   1.352   1.455   1.364   1.447   1.462   1.136   1.016   1.219   1.131   1.144   1.135   1.370   1.017   1.400   1.165   1.264   1.703   1.367   1.817   1.378   1.532   1.343   1.348   1.518   1.168   1.271   1.505   1.800   1.552   2.006   1.833   1.612   1.438   0.978   1.086   0.881   0.970   1.033   1.196   1.297   1.369   1.485   1.417   1.158   1.119   1.206   1.365   1.275   1.254   1.318   1.163   1.207   1.231   0.949   1.147   1.355   1.026   1.523   1.631   1.426   1.462   1.126   0.817   0.894   1.013
    41.38    1.627   1.613   1.566   1.709   1.497   1.748   1.662   1.568   1.493   1.521   1.476   1.233   1.323   1.639   1.742   1.255   0.983   1.147   1.094   1.245   1.519   1.215   1.298   1.008   1.188   1.252   0.803   1.095   1.100   1.060   1.274   1.142   1.680   1.875   1.998   1.489   1.222   1.527   1.297   1.251   1.399   0.754   0.984   1.035   1.099   0.981   0.857   1.072   1.133   1.363   1.019   1.067   1.088   1.186   1.341   1.380   1.201   1.562   1.399   1.624   1.655   1.101   1.370   1.687   1.313   1.289   1.457   1.793   1.506   0.987   0.945   1.231   1.013   1.045   1.220   1.210   1.485   1.652   1.397   1.419   1.092   1.142   0.951   0.922   1.450   1.279   1.215   1.461   1.131   1.436   1.646   1.226   1.158   1.434   1.451   1.507   1.551   1.811   1.891   1.831   1.378   1.200   1.265   0.951   0.849   1.124   0.962   1.153   1.029   1.118   1.272   1.049   1.137   1.478   1.316   0.965   1.140   0.867   0.933   1.135   1.434   1.174   1.006   1.063   0.806   0.944   0.950   1.181   1.280   0.880   1.158   1.073   1.207   1.286   1.182   1.366   1.189   1.176   1.469   1.201   1.193   1.157   1.434   1.624   1.216   1.190   1.205   1.466   1.049   1.316   1.535   1.766   1.764   1.911   1.660   1.556   1.062   1.171   1.229   1.253   1.013   1.081   1.469   1.720   2.033   2.091   1.773   1.863   1.408   1.119   1.067   0.976   1.148   1.251   1.239   1.244   1.099   1.107   1.165   1.032   1.083   1.051   1.169   1.325   1.016   1.132   0.963   0.964   0.897   0.987   1.309   1.349   1.748   1.795   1.340   1.154   0.989   0.912   0.896   1.024
    31.03    1.580   1.375   1.664   1.486   1.601   1.775   1.379   1.442   1.067   1.238   1.092   1.158   1.278   1.304   1.729   1.443   1.284   1.044   0.906   1.057   1.440   1.205   1.047   1.286   1.319   1.240   1.082   0.918   0.888   1.028   1.017   1.151   1.521   1.771   1.628   1.813   1.224   1.673   1.729   1.643   1.164   1.064   1.098   1.062   1.079   0.907   0.947   1.382   1.100   1.037   0.848   0.985   1.024   1.343   1.463   1.571   1.109   1.153   1.479   1.381   1.491   1.455   1.554   1.421   1.508   1.636   1.766   1.510   1.771   1.251   1.035   1.031   1.351   1.452   1.015   1.137   1.294   1.468   1.479   0.955   0.878   0.853   0.866   1.218   1.567   1.249   1.353   1.162   1.323   1.270   1.518   1.231   1.430   1.546   1.405   1.333   1.632   1.438   1.435   1.186   1.198   1.282   0.839   1.119   1.309   1.290   1.246   1.415   0.948   1.063   1.414   1.211   1.208   1.538   1.179   1.288   1.042   1.138   1.079   1.440   1.714   1.575   1.370   1.283   1.193   0.926   1.033   1.322   0.941   0.968   1.108   1.316   1.213   1.406   1.123   1.036   1.055   1.144   1.161   1.045   0.963   1.358   1.248   1.553   1.147   1.326   1.473   1.232   1.363   1.081   1.243   1.529   1.233   1.604   1.737   1.406   0.831   1.179   1.223   1.410   1.257   1.373   1.463   1.344   1.799   1.558   1.712   1.447   1.487   1.618   1.330   1.118   1.216   1.315   0.930   0.974   1.054   1.111   1.117   0.878   1.051   1.289   1.149   1.040   1.053   1.166   0.823   1.005   1.139   1.296   1.227   1.673   1.857   1.875   1.173   0.984   1.020   0.833   0.979   1.134
    20.69    1.414   1.687   1.598   1.801   1.420   1.289   1.340   1.644   1.763   1.222   1.009   1.059   1.441   1.321   1.441   1.552   0.948   1.062   0.958   0.914   1.198   1.192   0.948   1.036   1.131   1.096   1.305   1.036   1.154   0.949   0.958   1.114   1.052   1.559   1.883   1.710   1.372   1.586   1.444   1.413   1.271   1.538   1.032   1.043   1.037   0.941   1.249   1.508   1.151   1.028   0.976   1.043   0.804   1.293   1.607   1.417   1.296   1.251   1.531   1.521   1.303   1.618   1.955   1.899   2.227   2.033   1.861   1.636   1.856   1.874   1.565   1.250   1.399   1.416   1.221   1.040   1.415   1.647   1.421   1.059   0.941   0.947   1.043   1.181   1.281   1.218   1.151   1.119   1.158   1.051   1.246   1.379   1.396   1.303   1.550   1.598   1.415   1.544   1.196   0.899   1.185   1.115   1.169   1.173   1.230   1.429   1.124   1.227   1.213   0.981   1.219   1.392   1.327   1.326   1.167   0.744   0.902   0.887   0.987   1.138   1.493   1.416   1.349   1.255   1.435   0.952   0.864   0.793   0.935   1.114   1.305   1.055   1.135   1.045   0.974   1.268   0.992   0.837   0.938   0.807   0.964   1.263   1.245   1.228   1.165   0.828   1.259   1.050   1.084   0.955   1.017   1.467   1.251   1.420   1.737   1.359   1.328   1.117   1.220   0.920   1.192   1.092   1.150   1.260   1.395   1.328   1.005   1.410   1.381   1.046   1.072   1.124   1.160   1.101   1.027   1.059   0.967   1.106   0.860   1.012   1.128   1.302   1.231   1.061   1.099   1.135   0.945   1.160   1.236   1.107   1.443   1.521   1.460   1.359   1.414   1.085   1.007   1.088   1.139   1.151
    10.34    1.197   1.277   1.499   1.330   1.562   1.741   1.176   1.250   1.329   1.100   1.340   1.258   1.256   1.361   0.948   0.842   0.891   0.970   1.061   1.031   1.139   1.194   1.216   1.301   1.489   1.299   1.081   1.111   1.248   1.275   1.252   1.265   1.141   1.698   1.851   1.462   1.639   1.745   1.232   1.129   1.035   1.402   1.361   1.072   1.025   1.097   1.269   1.261   1.684   1.067   0.890   0.951   0.894   1.445   1.432   1.371   1.323   1.693   1.700   1.346   1.336   1.357   1.668   1.960   2.071   1.847   1.841   1.655   1.571   1.460   1.264   1.590   1.385   1.242   0.873   0.807   0.925   1.104   1.037   1.212   1.356   1.291   1.185   0.979   0.888   0.913   0.928   0.997   1.012   1.132   1.180   1.417   1.132   1.119   1.206   1.430   1.267   1.040   1.318   1.161   1.078   0.985   1.047   0.758   1.114   1.356   1.109   1.101   0.969   0.929   0.945   1.190   1.364   1.128   1.169   0.827   0.908   1.058   1.035   0.960   1.448   1.125   1.242   0.928   1.105   1.342   1.001   0.948   1.225   1.329   1.069   0.990   1.203   1.223   0.956   1.305   0.959   0.984   1.199   1.041   1.126   1.176   1.201   1.078   0.809   0.989   1.043   1.368   1.382   1.349   1.594   1.502   1.732   1.520   1.385   1.273   1.182   1.387   1.045   1.140   0.997   1.280   0.991   0.966   1.115   0.963   1.110   1.170   1.141   1.035   0.840   0.977   1.093   0.885   0.934   1.122   1.171   1.075   1.113   1.123   1.160   1.176   1.082   1.387   1.321   1.195   1.029   1.229   1.389   1.137   1.180   1.250   1.180   1.287   1.183   1.203   0.791   0.776   1.221   1.594
     0.00    1.268   1.359   1.517   1.462   1.429   1.464   1.180   1.397   1.025   1.424   1.151   1.022   1.224   1.202   1.111   1.029   1.138   1.143   1.101   1.179   1.196   1.429   1.417   1.386   1.604   1.704   1.425   1.398   1.221   1.271   1.387   1.209   1.370   1.625   1.426   1.368   1.321   1.476   1.131   1.054   1.086   1.129   1.301   1.431   1.096   1.370   1.508   1.507   1.677   1.278   0.946   1.134   1.118   1.242   1.477   1.662   1.508   1.697   1.499   1.776   1.869   1.490   1.381   1.525   1.750   1.462   1.626   1.496   1.571   1.143   1.178   1.475   1.198   1.083   0.888   1.037   0.884   0.917   1.011   1.105   1.245   1.465   1.647   1.073   0.762   0.931   1.155   0.853   0.959   1.187   1.285   1.425   1.329   1.405   1.292   1.277   1.294   1.091   0.931   1.277   1.153   1.045   1.311   0.887   1.036   0.997   1.169   1.220   1.154   0.961   0.951   1.166   1.387   1.071   0.981   0.974   1.093   1.079   0.851   0.967   1.226   1.507   1.411   1.278   1.311   1.219   1.409   1.061   0.993   1.108   1.066   1.230   1.343   1.348   1.335   1.303   0.941   0.914   0.918   1.055   1.093   0.924   1.241   1.326   1.254   1.465   1.485   1.516   1.697   1.326   1.586   1.721   1.513   1.247   1.066   1.422   1.260   1.211   0.978   1.018   0.994   1.324   1.134   1.252   1.487   1.013   0.802   1.043   0.821   1.016   0.887   0.865   1.006   0.870   0.848   1.243   1.470   1.671   1.253   1.384   1.201   0.966   0.925   1.013   1.064   1.052   1.186   1.294   1.523   1.374   1.336   1.488   1.655   1.870   1.421   1.282   1.039   1.206   1.404   1.469

   Height   Standard deviation at grid points for the v component:
   300.00    1.199   1.199   1.199   1.199   1.199   1.199   1.199   1.199   1.199   1.199   1.199   1.199   1.199   1.199   1.199   1.199   1.199   1.199   1.199   1.199   1.199   1.199   1.199   1.199   1.199   1.199   1.199   1.199   1.199   1.199   1.199   1.199   1.199   1.199   1.199   1.199   1.199   1.199   1.199   1.199   1.199   1.199   1.199   1.199   1.199   1.199   1.199   1.199   1.199   1.199   1.199   1.199   1.199   1.199   1.199   1.199   1.199   1.199   1.199   1.199   1.199   1.199   1.199   1.199   1.199   1.199   1.199   1.199   1.199   1.199   1.199   1.199   1.199   1.199   1.199   1.199   1.199   1.199   1.199   1.199   1.199   1.199   1.199   1.199   1.199   1.199   1.199   1.199   1.199   1.199   1.199   1.199   1.199   1.199   1.199   1.199   1.199   1.199   1.199   1.199   1.199   1.199   1.199   1.199   1.199   1.199   1.199   1.199   1.199   1.199   1.199   1.199   1.199   1.199   1.199   1.199   1.199   1.199   1.199   1.199   1.199   1.199   1.199   1.199   1.199   1.199   1.199   1.199   1.199   1.199   1.199   1.199   1.199   1.199   1.199   1.199   1.199   1.199   1.199   1.199   1.199   1.199   1.199   1.199   1.199   1.199   1.199   1.199   1.199   1.199   1.199   1.199   1.199   1.199   1.199   1.199   1.199   1.199   1.199   1.199   1.199   1.199   1.199   1.199   1.199   1.199   1.199   1.199   1.199   1.199   1.199   1.199   1.199   1.199   1.199   1.199   1.199   1.199   1.199   1.199   1.199   1.199   1.199   1.199   1.199   1.199   1.199   1.199   1.199   1.199   1.199   1.199   1.199   1.199   1.199   1.199   1.199   1.199   1.199   1.199
   289.66    1.199   1.199   1.199   1.199   1.199   1.199   1.199   1.199   1.199   1.199   1.199   1.199   1.199   1.199   1.199   1.199   1.199   1.199   1.199   1.199   1.199   1.199   1.199   1.199   1.199   1.199   1.199   1.199   1.199   1.199   1.199   1.199   1.199   1.199   1.199   1.199   1.199   1.199   1.199   1.199   1.199   1.199   1.199   1.199   1.199   1.199   1.199   1.199   1.199   1.199   1.199   1.199   1.199   1.199   1.199   1.199   1.199   1.199   1.199   1.199   1.199   1.199   1.199   1.199   1.199   1.199   1.199   1.199   1.199   1.199   1.199   1.199   1.199   1.199   1.199   1.199   1.199   1.199   1.199   1.199   1.199   1.199   1.199   1.199   1.199   1.199   1.199   1.199   1.199   1.199   1.199   1.199   1.199   1.199   1.199   1.199   1.199   1.199   1.199   1.199   1.199   1.199   1.199   1.199   1.199   1.199   1.199   1.199   1.199   1.199   1.199   1.199   1.199   1.199   1.199   1.199   1.199   1.199   1.199   1.199   1.199   1.199   1.199   1.199   1.199   1.199   1.199   1.199   1.199   1.199   1.199   1.199   1.199   1.199   1.199   1.199   1.199   1.199   1.199   1.199   1.199   1.199   1.199   1.199   1.199   1.199   1.199   1.199   1.199   1.199   1.199   1.199   1.199   1.199   1.199   1.199   1.199   1.199   1.199   1.199   1.199   1.199   1.199   1.199   1.199   1.199   1.199   1.199   1.199   1.199   1.199   1.199   1.199   1.199   1.199   1.199   1.199   1.199   1.199   1.199   1.199   1.199   1.199   1.199   1.199   1.199   1.199   1.199   1.199   1.199   1.199   1.199   1.199   1.199   1.199   1.199   1.199   1.199   1.199   1.199
   279.31    1.199   1.199   1.199   1.199   1.199   1.199   1.199   1.199   1.199   1.199   1.199   1.199   1.199   1.199   1.199   1.199   1.199   1.199   1.199   1.199   1.199   1.199   1.199   1.199   1.199   1.199   1.199   1.199   1.199   1.199   1.199   1.199   1.199   1.199   1.199   1.199   1.199   1.199   1.199   1.199   1.199   1.199   1.199   1.199   1.199   1.199   1.199   1.199   1.199   1.199   1.199   1.199   1.199   1.199   1.199   1.199   1.199   1.199   1.199   1.199   1.199   1.199   1.199   1.199   1.199   1.199   1.199   1.199   1.199   1.199   1.199   1.199   1.199   1.199   1.199   1.199   1.199   1.199   1.199   1.199   1.199   1.199   1.199   1.199   1.199   1.199   1.199   1.199   1.199   1.199   1.199   1.199   1.199   1.199   1.199   1.199   1.199   1.199   1.199   1.199   1.199   1.199   1.199   1.199   1.199   1.199   1.199   1.199   1.199   1.199   1.199   1.199   1.199   1.199   1.199   1.199   1.199   1.199   1.199   1.199   1.199   1.199   1.199   1.199   1.199   1.199   1.199   1.199   1.199   1.199   1.199   1.199   1.199   1.199   1.199   1.199   1.199   1.199   1.199   1.199   1.199   1.199   1.199   1.199   1.199   1.199   1.199   1.199   1.199   1.199   1.199   1.199   1.199   1.199   1.199   1.199   1.199   1.199   1.199   1.199   1.199   1.199   1.199   1.199   1.199   1.199   1.199   1.199   1.199   1.199   1.199   1.199   1.199   1.199   1.199   1.199   1.199   1.199   1.199   1.199   1.199   1.199   1.199   1.199   1.199   1.199   1.199   1.199   1.199   1.199   1.199   1.199   1.199   1.199   1.199   1.199   1.199   1.199   1.199   1.199
   268.97    1.199   1.199   1.199   1.199   1.199   1.199   1.199   1.199   1.199   1.199   1.199   1.199   1.199   1.199   1.199   1.199   1.199   1.199   1.199   1.199   1.199   1.199   1.199   1.199   1.199   1.199   1.199   1.199   1.199   1.199   1.199   1.199   1.199   1.199   1.199   1.199   1.199   1.199   1.199   1.199   1.199   1.199   1.199   1.199   1.199   1.199   1.199   1.199   1.199   1.199   1.199   1.199   1.199   1.199   1.199   1.199   1.199   1.199   1.199   1.199   1.199   1.199   1.199   1.199   1.199   1.199   1.199   1.199   1.199   1.199   1.199   1.199   1.199   1.199   1.199   1.199   1.199   1.199   1.199   1.199   1.199   1.199   1.199   1.199   1.199   1.199   1.199   1.199   1.199   1.199   1.199   1.199   1.199   1.199   1.199   1.199   1.199   1.199   1.199   1.199   1.199   1.199   1.199   1.199   1.199   1.199   1.199   1.199   1.199   1.199   1.199   1.199   1.199   1.199   1.199   1.199   1.199   1.199   1.199   1.199   1.199   1.199   1.199   1.199   1.199   1.199   1.199   1.199   1.199   1.199   1.199   1.199   1.199   1.199   1.199   1.199   1.199   1.199   1.199   1.199   1.199   1.199   1.199   1.199   1.199   1.199   1.199   1.199   1.199   1.199   1.199   1.199   1.199   1.199   1.199   1.199   1.199   1.199   1.199   1.199   1.199   1.199   1.199   1.199   1.199   1.199   1.199   1.199   1.199   1.199   1.199   1.199   1.199   1.199   1.199   1.199   1.199   1.199   1.199   1.199   1.199   1.199   1.199   1.199   1.199   1.199   1.199   1.199   1.199   1.199   1.199   1.199   1.199   1.199   1.199   1.199   1.199   1.199   1.199   1.199
   258.62    1.199   1.199   1.199   1.199   1.199   1.199   1.199   1.199   1.199   1.199   1.199   1.199   1.199   1.199   1.199   1.199   1.199   1.199   1.199   1.199   1.199   1.199   1.199   1.199   1.199   1.199   1.199   1.199   1.199   1.199   1.199   1.199   1.199   1.199   1.199   1.199   1.199   1.199   1.199   1.199   1.199   1.199   1.199   1.199   1.199   1.199   1.199   1.199   1.199   1.199   1.199   1.199   1.199   1.199   1.199   1.199   1.199   1.199   1.199   1.199   1.199   1.199   1.199   1.199   1.199   1.199   1.199   1.199   1.199   1.199   1.199   1.199   1.199   1.199   1.199   1.199   1.199   1.199   1.199   1.199   1.199   1.199   1.199   1.199   1.199   1.199   1.199   1.199   1.199   1.199   1.199   1.199   1.199   1.199   1.199   1.199   1.199   1.199   1.199   1.199   1.199   1.199   1.199   1.199   1.199   1.199   1.199   1.199   1.199   1.199   1.199   1.199   1.199   1.199   1.199   1.199   1.199   1.199   1.199   1.199   1.199   1.199   1.199   1.199   1.199   1.199   1.199   1.199   1.199   1.199   1.199   1.199   1.199   1.199   1.199   1.199   1.199   1.199   1.199   1.199   1.199   1.199   1.199   1.199   1.199   1.199   1.199   1.199   1.199   1.199   1.199   1.199   1.199   1.199   1.199   1.199   1.199   1.199   1.199   1.199   1.199   1.199   1.199   1.199   1.199   1.199   1.199   1.199   1.199   1.199   1.199   1.199   1.199   1.199   1.199   1.199   1.199   1.199   1.199   1.199   1.199   1.199   1.199   1.199   1.199   1.199   1.199   1.199   1.199   1.199   1.199   1.199   1.199   1.199   1.199   1.199   1.199   1.199   1.199   1.199
   248.28    1.199   1.199   1.199   1.199   1.199   1.199   1.199   1.199   1.199   1.199   1.199   1.199   1.199   1.199   1.199   1.199   1.199   1.199   1.199   1.199   1.199   1.199   1.199   1.199   1.199   1.199   1.199   1.199   1.199   1.199   1.199   1.199   1.199   1.199   1.199   1.199   1.199   1.199   1.199   1.199   1.199   1.199   1.199   1.199   1.199   1.199   1.199   1.199   1.199   1.199   1.199   1.199   1.199   1.199   1.199   1.199   1.199   1.199   1.199   1.199   1.199   1.199   1.199   1.199   1.199   1.199   1.199   1.199   1.199   1.199   1.199   1.199   1.199   1.199   1.199   1.199   1.199   1.199   1.199   1.199   1.199   1.199   1.199   1.199   1.199   1.199   1.199   1.199   1.199   1.199   1.199   1.199   1.199   1.199   1.199   1.199   1.199   1.199   1.199   1.199   1.199   1.199   1.199   1.199   1.199   1.199   1.199   1.199   1.199   1.199   1.199   1.199   1.199   1.199   1.199   1.199   1.199   1.199   1.199   1.199   1.199   1.199   1.199   1.199   1.199   1.199   1.199   1.199   1.199   1.199   1.199   1.199   1.199   1.199   1.199   1.199   1.199   1.199   1.199   1.199   1.199   1.199   1.199   1.199   1.199   1.199   1.199   1.199   1.199   1.199   1.199   1.199   1.199   1.199   1.199   1.199   1.199   1.199   1.199   1.199   1.199   1.199   1.199   1.199   1.199   1.199   1.199   1.199   1.199   1.199   1.199   1.199   1.199   1.199   1.199   1.199   1.199   1.199   1.199   1.199   1.199   1.199   1.199   1.199   1.199   1.199   1.199   1.199   1.199   1.199   1.199   1.199   1.199   1.199   1.199   1.199   1.199   1.199   1.199   1.199
   237.93    1.199   1.199   1.199   1.199   1.199   1.199   1.199   1.199   1.199   1.199   1.199   1.199   1.199   1.199   1.199   1.199   1.199   1.199   1.199   1.199   1.199   1.199   1.199   1.199   1.199   1.199   1.199   1.199   1.199   1.199   1.199   1.199   1.199   1.199   1.199   1.199   1.199   1.199   1.199   1.199   1.199   1.199   1.199   1.199   1.199   1.199   1.199   1.199   1.199   1.199   1.199   1.199   1.199   1.199   1.199   1.199   1.199   1.199   1.199   1.199   1.199   1.199   1.199   1.199   1.199   1.199   1.199   1.199   1.199   1.199   1.199   1.199   1.199   1.199   1.199   1.199   1.199   1.199   1.199   1.199   1.199   1.199   1.199   1.199   1.199   1.199   1.199   1.199   1.199   1.199   1.199   1.199   1.199   1.199   1.199   1.199   1.199   1.199   1.199   1.199   1.199   1.199   1.199   1.199   1.199   1.199   1.199   1.199   1.199   1.199   1.199   1.199   1.199   1.199   1.199   1.199   1.199   1.199   1.199   1.199   1.199   1.199   1.199   1.199   1.199   1.199   1.199   1.199   1.199   1.199   1.199   1.199   1.199   1.199   1.199   1.199   1.199   1.199   1.199   1.199   1.199   1.199   1.199   1.199   1.199   1.199   1.199   1.199   1.199   1.199   1.199   1.199   1.199   1.199   1.199   1.199   1.199   1.199   1.199   1.199   1.199   1.199   1.199   1.199   1.199   1.199   1.199   1.199   1.199   1.199   1.199   1.199   1.199   1.199   1.199   1.199   1.199   1.199   1.199   1.199   1.199   1.199   1.199   1.199   1.199   1.199   1.199   1.199   1.199   1.199   1.199   1.199   1.199   1.199   1.199   1.199   1.199   1.199   1.199   1.199
   227.59    1.199   1.199   1.199   1.199   1.199   1.199   1.199   1.199   1.199   1.199   1.199   1.199   1.199   1.199   1.199   1.199   1.199   1.199   1.199   1.199   1.199   1.199   1.199   1.199   1.199   1.199   1.199   1.199   1.199   1.199   1.199   1.199   1.199   1.199   1.199   1.199   1.199   1.199   1.199   1.199   1.199   1.199   1.199   1.199   1.199   1.199   1.199   1.199   1.199   1.199   1.199   1.199   1.199   1.199   1.199   1.199   1.199   1.199   1.199   1.199   1.199   1.199   1.199   1.199   1.199   1.199   1.199   1.199   1.199   1.199   1.199   1.199   1.199   1.199   1.199   1.199   1.199   1.199   1.199   1.199   1.199   1.199   1.199   1.199   1.199   1.199   1.199   1.199   1.199   1.199   1.199   1.199   1.199   1.199   1.199   1.199   1.199   1.199   1.199   1.199   1.199   1.199   1.199   1.199   1.199   1.199   1.199   1.199   1.199   1.199   1.199   1.199   1.199   1.199   1.199   1.199   1.199   1.199   1.199   1.199   1.199   1.199   1.199   1.199   1.199   1.199   1.199   1.199   1.199   1.199   1.199   1.199   1.199   1.199   1.199   1.199   1.199   1.199   1.199   1.199   1.199   1.199   1.199   1.199   1.199   1.199   1.199   1.199   1.199   1.199   1.199   1.199   1.199   1.199   1.199   1.199   1.199   1.199   1.199   1.199   1.199   1.199   1.199   1.199   1.199   1.199   1.199   1.199   1.199   1.199   1.199   1.199   1.199   1.199   1.199   1.199   1.199   1.199   1.199   1.199   1.199   1.199   1.199   1.199   1.199   1.199   1.199   1.199   1.199   1.199   1.199   1.199   1.199   1.199   1.199   1.199   1.199   1.199   1.199   1.199
   217.24    1.199   1.199   1.199   1.199   1.199   1.199   1.199   1.199   1.199   1.199   1.199   1.199   1.199   1.199   1.199   1.199   1.199   1.199   1.199   1.199   1.199   1.199   1.199   1.199   1.199   1.199   1.199   1.199   1.199   1.199   1.199   1.199   1.199   1.199   1.199   1.199   1.199   1.199   1.199   1.199   1.199   1.199   1.199   1.199   1.199   1.199   1.199   1.199   1.199   1.199   1.199   1.199   1.199   1.199   1.199   1.199   1.199   1.199   1.199   1.199   1.199   1.199   1.199   1.199   1.199   1.199   1.199   1.199   1.199   1.199   1.199   1.199   1.199   1.199   1.199   1.199   1.199   1.199   1.199   1.199   1.199   1.199   1.199   1.199   1.199   1.199   1.199   1.199   1.199   1.199   1.199   1.199   1.199   1.199   1.199   1.199   1.199   1.199   1.199   1.199   1.199   1.199   1.199   1.199   1.199   1.199   1.199   1.199   1.199   1.199   1.199   1.199   1.199   1.199   1.199   1.199   1.199   1.199   1.199   1.199   1.199   1.199   1.199   1.199   1.199   1.199   1.199   1.199   1.199   1.199   1.199   1.199   1.199   1.199   1.199   1.199   1.199   1.199   1.199   1.199   1.199   1.199   1.199   1.199   1.199   1.199   1.199   1.199   1.199   1.199   1.199   1.199   1.199   1.199   1.199   1.199   1.199   1.199   1.199   1.199   1.199   1.199   1.199   1.199   1.199   1.199   1.199   1.199   1.199   1.199   1.199   1.199   1.199   1.199   1.199   1.199   1.199   1.199   1.199   1.199   1.199   1.199   1.199   1.199   1.199   1.199   1.199   1.199   1.199   1.199   1.199   1.199   1.199   1.199   1.199   1.199   1.199   1.199   1.199   1.199
   206.90    1.199   1.199   1.199   1.199   1.199   1.199   1.199   1.199   1.199   1.199   1.199   1.199   1.199   1.199   1.199   1.199   1.199   1.199   1.199   1.199   1.199   1.199   1.199   1.199   1.199   1.199   1.199   1.199   1.199   1.199   1.199   1.199   1.199   1.199   1.199   1.199   1.199   1.199   1.199   1.199   1.199   1.199   1.199   1.199   1.199   1.199   1.199   1.199   1.199   1.199   1.199   1.199   1.199   1.199   1.199   1.199   1.199   1.199   1.199   1.199   1.199   1.199   1.199   1.199   1.199   1.199   1.199   1.199   1.199   1.199   1.199   1.199   1.199   1.199   1.199   1.199   1.199   1.199   1.199   1.199   1.199   1.199   1.199   1.199   1.199   1.199   1.199   1.199   1.199   1.199   1.199   1.199   1.199   1.199   1.199   1.199   1.199   1.199   1.199   1.199   1.199   1.199   1.199   1.199   1.199   1.199   1.199   1.199   1.199   1.199   1.199   1.199   1.199   1.199   1.199   1.199   1.199   1.199   1.199   1.199   1.199   1.199   1.199   1.199   1.199   1.199   1.199   1.199   1.199   1.199   1.199   1.199   1.199   1.199   1.199   1.199   1.199   1.199   1.199   1.199   1.199   1.199   1.199   1.199   1.199   1.199   1.199   1.199   1.199   1.199   1.199   1.199   1.199   1.199   1.199   1.199   1.199   1.199   1.199   1.199   1.199   1.199   1.199   1.199   1.199   1.199   1.199   1.199   1.199   1.199   1.199   1.199   1.199   1.199   1.199   1.199   1.199   1.199   1.199   1.199   1.199   1.199   1.199   1.199   1.199   1.199   1.199   1.199   1.199   1.199   1.199   1.199   1.199   1.199   1.199   1.199   1.199   1.199   1.199   1.199
   196.55    1.199   1.199   1.199   1.199   1.199   1.199   1.199   1.199   1.199   1.199   1.199   1.199   1.199   1.199   1.199   1.199   1.199   1.199   1.199   1.199   1.199   1.199   1.199   1.199   1.199   1.199   1.199   1.199   1.199   1.199   1.199   1.199   1.199   1.199   1.199   1.199   1.199   1.199   1.199   1.199   1.199   1.199   1.199   1.199   1.199   1.199   1.199   1.199   1.199   1.199   1.199   1.199   1.199   1.199   1.199   1.199   1.199   1.199   1.199   1.199   1.199   1.199   1.199   1.199   1.199   1.199   1.199   1.199   1.199   1.199   1.199   1.199   1.199   1.199   1.199   1.199   1.199   1.199   1.199   1.199   1.199   1.199   1.199   1.199   1.199   1.199   1.199   1.199   1.199   1.199   1.199   1.199   1.199   1.199   1.199   1.199   1.199   1.199   1.199   1.199   1.199   1.199   1.199   1.199   1.199   1.199   1.199   1.199   1.199   1.199   1.199   1.199   1.199   1.199   1.199   1.199   1.199   1.199   1.199   1.199   1.199   1.199   1.199   1.199   1.199   1.199   1.199   1.199   1.199   1.199   1.199   1.199   1.199   1.199   1.199   1.199   1.199   1.199   1.199   1.199   1.199   1.199   1.199   1.199   1.199   1.199   1.199   1.199   1.199   1.199   1.199   1.199   1.199   1.199   1.199   1.199   1.199   1.199   1.199   1.199   1.199   1.199   1.199   1.199   1.199   1.199   1.199   1.199   1.199   1.199   1.199   1.199   1.199   1.199   1.199   1.199   1.199   1.199   1.199   1.199   1.199   1.199   1.199   1.199   1.199   1.199   1.199   1.199   1.199   1.199   1.199   1.199   1.199   1.199   1.199   1.199   1.199   1.199   1.199   1.199
   186.21    1.199   1.199   1.199   1.199   1.199   1.199   1.199   1.199   1.199   1.199   1.199   1.199   1.199   1.199   1.199   1.199   1.199   1.199   1.199   1.199   1.199   1.199   1.199   1.199   1.199   1.199   1.199   1.199   1.199   1.199   1.199   1.199   1.199   1.199   1.199   1.199   1.199   1.199   1.199   1.199   1.199   1.199   1.199   1.199   1.199   1.199   1.199   1.199   1.199   1.199   1.199   1.199   1.199   1.199   1.199   1.199   1.199   1.199   1.199   1.199   1.199   1.199   1.199   1.199   1.199   1.199   1.199   1.199   1.199   1.199   1.199   1.199   1.199   1.199   1.199   1.199   1.199   1.199   1.199   1.199   1.199   1.199   1.199   1.199   1.199   1.199   1.199   1.199   1.199   1.199   1.199   1.199   1.199   1.199   1.199   1.199   1.199   1.199   1.199   1.199   1.199   1.199   1.199   1.199   1.199   1.199   1.199   1.199   1.199   1.199   1.199   1.199   1.199   1.199   1.199   1.199   1.199   1.199   1.199   1.199   1.199   1.199   1.199   1.199   1.199   1.199   1.199   1.199   1.199   1.199   1.199   1.199   1.199   1.199   1.199   1.199   1.199   1.199   1.199   1.199   1.199   1.199   1.199   1.199   1.199   1.199   1.199   1.199   1.199   1.199   1.199   1.199   1.199   1.199   1.199   1.199   1.199   1.199   1.199   1.199   1.199   1.199   1.199   1.199   1.199   1.199   1.199   1.199   1.199   1.199   1.199   1.199   1.199   1.199   1.199   1.199   1.199   1.199   1.199   1.199   1.199   1.199   1.199   1.199   1.199   1.199   1.199   1.199   1.199   1.199   1.199   1.199   1.199   1.199   1.199   1.199   1.199   1.199   1.199   1.199
[...]
   113.79    0.781   0.781   0.781   0.781   0.781   0.781   0.781   0.781   0.781   0.781   0.781   0.781   0.781   0.781   0.781   0.781   0.781   0.781   0.781   0.781   0.781   0.781   0.781   0.781   0.781   0.781   0.781   0.781   0.781   0.781   0.781   0.781   0.781   0.781   0.781   0.781   0.781   0.781   0.781   0.781   0.781   0.781   0.781   0.781   0.781   0.781   0.781   0.781   0.781   0.781   0.781   0.781   0.781   0.781   0.781   0.781   0.781   0.781   0.781   0.781   0.781   0.781   0.781   0.781   0.781   0.781   0.781   0.781   0.781   0.781   0.781   0.781   0.781   0.781   0.781   0.781   0.781   0.781   0.781   0.781   0.781   0.781   0.781   0.781   0.781   0.781   0.781   0.781   0.781   0.781   0.781   0.781   0.781   0.781   0.781   0.781   0.781   0.781   0.781   0.781   0.781   0.781   0.781   0.781   0.781   0.781   0.781   0.781   0.781   0.781   0.781   0.781   0.781   0.781   0.781   0.781   0.781   0.781   0.781   0.781   0.781   0.781   0.781   0.781   0.781   0.781   0.781   0.781   0.781   0.781   0.781   0.781   0.781   0.781   0.781   0.781   0.781   0.781   0.781   0.781   0.781   0.781   0.781   0.781   0.781   0.781   0.781   0.781   0.781   0.781   0.781   0.781   0.781   0.781   0.781   0.781   0.781   0.781   0.781   0.781   0.781   0.781   0.781   0.781   0.781   0.781   0.781   0.781   0.781   0.781   0.781   0.781   0.781   0.781   0.781   0.781   0.781   0.781   0.781   0.781   0.781   0.781   0.781   0.781   0.781   0.781   0.781   0.781   0.781   0.781   0.781   0.781   0.781   0.781   0.781   0.781   0.781   0.781   0.781   0.781
   103.45    0.781   0.781   0.781   0.781   0.781   0.781   0.781   0.781   0.781   0.781   0.781   0.781   0.781   0.781   0.781   0.781   0.781   0.781   0.781   0.781   0.781   0.781   0.781   0.781   0.781   0.781   0.781   0.781   0.781   0.781   0.781   0.781   0.781   0.781   0.781   0.781   0.781   0.781   0.781   0.781   0.781   0.781   0.781   0.781   0.781   0.781   0.781   0.781   0.781   0.781   0.781   0.781   0.781   0.781   0.781   0.781   0.781   0.781   0.781   0.781   0.781   0.781   0.781   0.781   0.781   0.781   0.781   0.781   0.781   0.781   0.781   0.781   0.781   0.781   0.781   0.781   0.781   0.781   0.781   0.781   0.781   0.781   0.781   0.781   0.781   0.781   0.781   0.781   0.781   0.781   0.781   0.781   0.781   0.781   0.781   0.781   0.781   0.781   0.781   0.781   0.781   0.781   0.781   0.781   0.781   0.781   0.781   0.781   0.781   0.781   0.781   0.781   0.781   0.781   0.781   0.781   0.781   0.781   0.781   0.781   0.781   0.781   0.781   0.781   0.781   0.781   0.781   0.781   0.781   0.781   0.781   0.781   0.781   0.781   0.781   0.781   0.781   0.781   0.781   0.781   0.781   0.781   0.781   0.781   0.781   0.781   0.781   0.781   0.781   0.781   0.781   0.781   0.781   0.781   0.781   0.781   0.781   0.781   0.781   0.781   0.781   0.781   0.781   0.781   0.781   0.781   0.781   0.781   0.781   0.781   0.781   0.781   0.781   0.781   0.781   0.781   0.781   0.781   0.781   0.781   0.781   0.781   0.781   0.781   0.781   0.781   0.781   0.781   0.781   0.781   0.781   0.781   0.781   0.781   0.781   0.781   0.781   0.781   0.781   0.781
    93.10    0.781   0.781   0.781   0.781   0.781   0.781   0.781   0.781   0.781   0.781   0.781   0.781   0.781   0.781   0.781   0.781   0.781   0.781   0.781   0.781   0.781   0.781   0.781   0.781   0.781   0.781   0.781   0.781   0.781   0.781   0.781   0.781   0.781   0.781   0.781   0.781   0.781   0.781   0.781   0.781   0.781   0.781   0.781   0.781   0.781   0.781   0.781   0.781   0.781   0.781   0.781   0.781   0.781   0.781   0.781   0.781   0.781   0.781   0.781   0.781   0.781   0.781   0.781   0.781   0.781   0.781   0.781   0.781   0.781   0.781   0.781   0.781   0.781   0.781   0.781   0.781   0.781   0.781   0.781   0.781   0.781   0.781   0.781   0.781   0.781   0.781   0.781   0.781   0.781   0.781   0.781   0.781   0.781   0.781   0.781   0.781   0.781   0.781   0.781   0.781   0.781   0.781   0.781   0.781   0.781   0.781   0.781   0.781   0.781   0.781   0.781   0.781   0.781   0.781   0.781   0.781   0.781   0.781   0.781   0.781   0.781   0.781   0.781   0.781   0.781   0.781   0.781   0.781   0.781   0.781   0.781   0.781   0.781   0.781   0.781   0.781   0.781   0.781   0.781   0.781   0.781   0.781   0.781   0.781   0.781   0.781   0.781   0.781   0.781   0.781   0.781   0.781   0.781   0.781   0.781   0.781   0.781   0.781   0.781   0.781   0.781   0.781   0.781   0.781   0.781   0.781   0.781   0.781   0.781   0.781   0.781   0.781   0.781   0.781   0.781   0.781   0.781   0.781   0.781   0.781   0.781   0.781   0.781   0.781   0.781   0.781   0.781   0.781   0.781   0.781   0.781   0.781   0.781   0.781   0.781   0.781   0.781   0.781   0.781   0.781
    82.76    0.781   0.781   0.781   0.781   0.781   0.781   0.781   0.781   0.781   0.781   0.781   0.781   0.781   0.781   0.781   0.781   0.781   0.781   0.781   0.781   0.781   0.781   0.781   0.781   0.781   0.781   0.781   0.781   0.781   0.781   0.781   0.781   0.781   0.781   0.781   0.781   0.781   0.781   0.781   0.781   0.781   0.781   0.781   0.781   0.781   0.781   0.781   0.781   0.781   0.781   0.781   0.781   0.781   0.781   0.781   0.781   0.781   0.781   0.781   0.781   0.781   0.781   0.781   0.781   0.781   0.781   0.781   0.781   0.781   0.781   0.781   0.781   0.781   0.781   0.781   0.781   0.781   0.781   0.781   0.781   0.781   0.781   0.781   0.781   0.781   0.781   0.781   0.781   0.781   0.781   0.781   0.781   0.781   0.781   0.781   0.781   0.781   0.781   0.781   0.781   0.781   0.781   0.781   0.781   0.781   0.781   0.781   0.781   0.781   0.781   0.781   0.781   0.781   0.781   0.781   0.781   0.781   0.781   0.781   0.781   0.781   0.781   0.781   0.781   0.781   0.781   0.781   0.781   0.781   0.781   0.781   0.781   0.781   0.781   0.781   0.781   0.781   0.781   0.781   0.781   0.781   0.781   0.781   0.781   0.781   0.781   0.781   0.781   0.781   0.781   0.781   0.781   0.781   0.781   0.781   0.781   0.781   0.781   0.781   0.781   0.781   0.781   0.781   0.781   0.781   0.781   0.781   0.781   0.781   0.781   0.781   0.781   0.781   0.781   0.781   0.781   0.781   0.781   0.781   0.781   0.781   0.781   0.781   0.781   0.781   0.781   0.781   0.781   0.781   0.781   0.781   0.781   0.781   0.781   0.781   0.781   0.781   0.781   0.781   0.781
    72.41    0.781   0.781   0.781   0.781   0.781   0.781   0.781   0.781   0.781   0.781   0.781   0.781   0.781   0.781   0.781   0.781   0.781   0.781   0.781   0.781   0.781   0.781   0.781   0.781   0.781   0.781   0.781   0.781   0.781   0.781   0.781   0.781   0.781   0.781   0.781   0.781   0.781   0.781   0.781   0.781   0.781   0.781   0.781   0.781   0.781   0.781   0.781   0.781   0.781   0.781   0.781   0.781   0.781   0.781   0.781   0.781   0.781   0.781   0.781   0.781   0.781   0.781   0.781   0.781   0.781   0.781   0.781   0.781   0.781   0.781   0.781   0.781   0.781   0.781   0.781   0.781   0.781   0.781   0.781   0.781   0.781   0.781   0.781   0.781   0.781   0.781   0.781   0.781   0.781   0.781   0.781   0.781   0.781   0.781   0.781   0.781   0.781   0.781   0.781   0.781   0.781   0.781   0.781   0.781   0.781   0.781   0.781   0.781   0.781   0.781   0.781   0.781   0.781   0.781   0.781   0.781   0.781   0.781   0.781   0.781   0.781   0.781   0.781   0.781   0.781   0.781   0.781   0.781   0.781   0.781   0.781   0.781   0.781   0.781   0.781   0.781   0.781   0.781   0.781   0.781   0.781   0.781   0.781   0.781   0.781   0.781   0.781   0.781   0.781   0.781   0.781   0.781   0.781   0.781   0.781   0.781   0.781   0.781   0.781   0.781   0.781   0.781   0.781   0.781   0.781   0.781   0.781   0.781   0.781   0.781   0.781   0.781   0.781   0.781   0.781   0.781   0.781   0.781   0.781   0.781   0.781   0.781   0.781   0.781   0.781   0.781   0.781   0.781   0.781   0.781   0.781   0.781   0.781   0.781   0.781   0.781   0.781   0.781   0.781   0.781
    62.07    0.781   0.781   0.781   0.781   0.781   0.781   0.781   0.781   0.781   0.781   0.781   0.781   0.781   0.781   0.781   0.781   0.781   0.781   0.781   0.781   0.781   0.781   0.781   0.781   0.781   0.781   0.781   0.781   0.781   0.781   0.781   0.781   0.781   0.781   0.781   0.781   0.781   0.781   0.781   0.781   0.781   0.781   0.781   0.781   0.781   0.781   0.781   0.781   0.781   0.781   0.781   0.781   0.781   0.781   0.781   0.781   0.781   0.781   0.781   0.781   0.781   0.781   0.781   0.781   0.781   0.781   0.781   0.781   0.781   0.781   0.781   0.781   0.781   0.781   0.781   0.781   0.781   0.781   0.781   0.781   0.781   0.781   0.781   0.781   0.781   0.781   0.781   0.781   0.781   0.781   0.781   0.781   0.781   0.781   0.781   0.781   0.781   0.781   0.781   0.781   0.781   0.781   0.781   0.781   0.781   0.781   0.781   0.781   0.781   0.781   0.781   0.781   0.781   0.781   0.781   0.781   0.781   0.781   0.781   0.781   0.781   0.781   0.781   0.781   0.781   0.781   0.781   0.781   0.781   0.781   0.781   0.781   0.781   0.781   0.781   0.781   0.781   0.781   0.781   0.781   0.781   0.781   0.781   0.781   0.781   0.781   0.781   0.781   0.781   0.781   0.781   0.781   0.781   0.781   0.781   0.781   0.781   0.781   0.781   0.781   0.781   0.781   0.781   0.781   0.781   0.781   0.781   0.781   0.781   0.781   0.781   0.781   0.781   0.781   0.781   0.781   0.781   0.781   0.781   0.781   0.781   0.781   0.781   0.781   0.781   0.781   0.781   0.781   0.781   0.781   0.781   0.781   0.781   0.781   0.781   0.781   0.781   0.781   0.781   0.781
    51.72    0.781   0.781   0.781   0.781   0.781   0.781   0.781   0.781   0.781   0.781   0.781   0.781   0.781   0.781   0.781   0.781   0.781   0.781   0.781   0.781   0.781   0.781   0.781   0.781   0.781   0.781   0.781   0.781   0.781   0.781   0.781   0.781   0.781   0.781   0.781   0.781   0.781   0.781   0.781   0.781   0.781   0.781   0.781   0.781   0.781   0.781   0.781   0.781   0.781   0.781   0.781   0.781   0.781   0.781   0.781   0.781   0.781   0.781   0.781   0.781   0.781   0.781   0.781   0.781   0.781   0.781   0.781   0.781   0.781   0.781   0.781   0.781   0.781   0.781   0.781   0.781   0.781   0.781   0.781   0.781   0.781   0.781   0.781   0.781   0.781   0.781   0.781   0.781   0.781   0.781   0.781   0.781   0.781   0.781   0.781   0.781   0.781   0.781   0.781   0.781   0.781   0.781   0.781   0.781   0.781   0.781   0.781   0.781   0.781   0.781   0.781   0.781   0.781   0.781   0.781   0.781   0.781   0.781   0.781   0.781   0.781   0.781   0.781   0.781   0.781   0.781   0.781   0.781   0.781   0.781   0.781   0.781   0.781   0.781   0.781   0.781   0.781   0.781   0.781   0.781   0.781   0.781   0.781   0.781   0.781   0.781   0.781   0.781   0.781   0.781   0.781   0.781   0.781   0.781   0.781   0.781   0.781   0.781   0.781   0.781   0.781   0.781   0.781   0.781   0.781   0.781   0.781   0.781   0.781   0.781   0.781   0.781   0.781   0.781   0.781   0.781   0.781   0.781   0.781   0.781   0.781   0.781   0.781   0.781   0.781   0.781   0.781   0.781   0.781   0.781   0.781   0.781   0.781   0.781   0.781   0.781   0.781   0.781   0.781   0.781
    41.38    0.781   0.781   0.781   0.781   0.781   0.781   0.781   0.781   0.781   0.781   0.781   0.781   0.781   0.781   0.781   0.781   0.781   0.781   0.781   0.781   0.781   0.781   0.781   0.781   0.781   0.781   0.781   0.781   0.781   0.781   0.781   0.781   0.781   0.781   0.781   0.781   0.781   0.781   0.781   0.781   0.781   0.781   0.781   0.781   0.781   0.781   0.781   0.781   0.781   0.781   0.781   0.781   0.781   0.781   0.781   0.781   0.781   0.781   0.781   0.781   0.781   0.781   0.781   0.781   0.781   0.781   0.781   0.781   0.781   0.781   0.781   0.781   0.781   0.781   0.781   0.781   0.781   0.781   0.781   0.781   0.781   0.781   0.781   0.781   0.781   0.781   0.781   0.781   0.781   0.781   0.781   0.781   0.781   0.781   0.781   0.781   0.781   0.781   0.781   0.781   0.781   0.781   0.781   0.781   0.781   0.781   0.781   0.781   0.781   0.781   0.781   0.781   0.781   0.781   0.781   0.781   0.781   0.781   0.781   0.781   0.781   0.781   0.781   0.781   0.781   0.781   0.781   0.781   0.781   0.781   0.781   0.781   0.781   0.781   0.781   0.781   0.781   0.781   0.781   0.781   0.781   0.781   0.781   0.781   0.781   0.781   0.781   0.781   0.781   0.781   0.781   0.781   0.781   0.781   0.781   0.781   0.781   0.781   0.781   0.781   0.781   0.781   0.781   0.781   0.781   0.781   0.781   0.781   0.781   0.781   0.781   0.781   0.781   0.781   0.781   0.781   0.781   0.781   0.781   0.781   0.781   0.781   0.781   0.781   0.781   0.781   0.781   0.781   0.781   0.781   0.781   0.781   0.781   0.781   0.781   0.781   0.781   0.781   0.781   0.781
    31.03    0.781   0.781   0.781   0.781   0.781   0.781   0.781   0.781   0.781   0.781   0.781   0.781   0.781   0.781   0.781   0.781   0.781   0.781   0.781   0.781   0.781   0.781   0.781   0.781   0.781   0.781   0.781   0.781   0.781   0.781   0.781   0.781   0.781   0.781   0.781   0.781   0.781   0.781   0.781   0.781   0.781   0.781   0.781   0.781   0.781   0.781   0.781   0.781   0.781   0.781   0.781   0.781   0.781   0.781   0.781   0.781   0.781   0.781   0.781   0.781   0.781   0.781   0.781   0.781   0.781   0.781   0.781   0.781   0.781   0.781   0.781   0.781   0.781   0.781   0.781   0.781   0.781   0.781   0.781   0.781   0.781   0.781   0.781   0.781   0.781   0.781   0.781   0.781   0.781   0.781   0.781   0.781   0.781   0.781   0.781   0.781   0.781   0.781   0.781   0.781   0.781   0.781   0.781   0.781   0.781   0.781   0.781   0.781   0.781   0.781   0.781   0.781   0.781   0.781   0.781   0.781   0.781   0.781   0.781   0.781   0.781   0.781   0.781   0.781   0.781   0.781   0.781   0.781   0.781   0.781   0.781   0.781   0.781   0.781   0.781   0.781   0.781   0.781   0.781   0.781   0.781   0.781   0.781   0.781   0.781   0.781   0.781   0.781   0.781   0.781   0.781   0.781   0.781   0.781   0.781   0.781   0.781   0.781   0.781   0.781   0.781   0.781   0.781   0.781   0.781   0.781   0.781   0.781   0.781   0.781   0.781   0.781   0.781   0.781   0.781   0.781   0.781   0.781   0.781   0.781   0.781   0.781   0.781   0.781   0.781   0.781   0.781   0.781   0.781   0.781   0.781   0.781   0.781   0.781   0.781   0.781   0.781   0.781   0.781   0.781
    20.69    0.781   0.781   0.781   0.781   0.781   0.781   0.781   0.781   0.781   0.781   0.781   0.781   0.781   0.781   0.781   0.781   0.781   0.781   0.781   0.781   0.781   0.781   0.781   0.781   0.781   0.781   0.781   0.781   0.781   0.781   0.781   0.781   0.781   0.781   0.781   0.781   0.781   0.781   0.781   0.781   0.781   0.781   0.781   0.781   0.781   0.781   0.781   0.781   0.781   0.781   0.781   0.781   0.781   0.781   0.781   0.781   0.781   0.781   0.781   0.781   0.781   0.781   0.781   0.781   0.781   0.781   0.781   0.781   0.781   0.781   0.781   0.781   0.781   0.781   0.781   0.781   0.781   0.781   0.781   0.781   0.781   0.781   0.781   0.781   0.781   0.781   0.781   0.781   0.781   0.781   0.781   0.781   0.781   0.781   0.781   0.781   0.781   0.781   0.781   0.781   0.781   0.781   0.781   0.781   0.781   0.781   0.781   0.781   0.781   0.781   0.781   0.781   0.781   0.781   0.781   0.781   0.781   0.781   0.781   0.781   0.781   0.781   0.781   0.781   0.781   0.781   0.781   0.781   0.781   0.781   0.781   0.781   0.781   0.781   0.781   0.781   0.781   0.781   0.781   0.781   0.781   0.781   0.781   0.781   0.781   0.781   0.781   0.781   0.781   0.781   0.781   0.781   0.781   0.781   0.781   0.781   0.781   0.781   0.781   0.781   0.781   0.781   0.781   0.781   0.781   0.781   0.781   0.781   0.781   0.781   0.781   0.781   0.781   0.781   0.781   0.781   0.781   0.781   0.781   0.781   0.781   0.781   0.781   0.781   0.781   0.781   0.781   0.781   0.781   0.781   0.781   0.781   0.781   0.781   0.781   0.781   0.781   0.781   0.781   0.781
    10.34    0.781   0.781   0.781   0.781   0.781   0.781   0.781   0.781   0.781   0.781   0.781   0.781   0.781   0.781   0.781   0.781   0.781   0.781   0.781   0.781   0.781   0.781   0.781   0.781   0.781   0.781   0.781   0.781   0.781   0.781   0.781   0.781   0.781   0.781   0.781   0.781   0.781   0.781   0.781   0.781   0.781   0.781   0.781   0.781   0.781   0.781   0.781   0.781   0.781   0.781   0.781   0.781   0.781   0.781   0.781   0.781   0.781   0.781   0.781   0.781   0.781   0.781   0.781   0.781   0.781   0.781   0.781   0.781   0.781   0.781   0.781   0.781   0.781   0.781   0.781   0.781   0.781   0.781   0.781   0.781   0.781   0.781   0.781   0.781   0.781   0.781   0.781   0.781   0.781   0.781   0.781   0.781   0.781   0.781   0.781   0.781   0.781   0.781   0.781   0.781   0.781   0.781   0.781   0.781   0.781   0.781   0.781   0.781   0.781   0.781   0.781   0.781   0.781   0.781   0.781   0.781   0.781   0.781   0.781   0.781   0.781   0.781   0.781   0.781   0.781   0.781   0.781   0.781   0.781   0.781   0.781   0.781   0.781   0.781   0.781   0.781   0.781   0.781   0.781   0.781   0.781   0.781   0.781   0.781   0.781   0.781   0.781   0.781   0.781   0.781   0.781   0.781   0.781   0.781   0.781   0.781   0.781   0.781   0.781   0.781   0.781   0.781   0.781   0.781   0.781   0.781   0.781   0.781   0.781   0.781   0.781   0.781   0.781   0.781   0.781   0.781   0.781   0.781   0.781   0.781   0.781   0.781   0.781   0.781   0.781   0.781   0.781   0.781   0.781   0.781   0.781   0.781   0.781   0.781   0.781   0.781   0.781   0.781   0.781   0.781
     0.00    0.781   0.781   0.781   0.781   0.781   0.781   0.781   0.781   0.781   0.781   0.781   0.781   0.781   0.781   0.781   0.781   0.781   0.781   0.781   0.781   0.781   0.781   0.781   0.781   0.781   0.781   0.781   0.781   0.781   0.781   0.781   0.781   0.781   0.781   0.781   0.781   0.781   0.781   0.781   0.781   0.781   0.781   0.781   0.781   0.781   0.781   0.781   0.781   0.781   0.781   0.781   0.781   0.781   0.781   0.781   0.781   0.781   0.781   0.781   0.781   0.781   0.781   0.781   0.781   0.781   0.781   0.781   0.781   0.781   0.781   0.781   0.781   0.781   0.781   0.781   0.781   0.781   0.781   0.781   0.781   0.781   0.781   0.781   0.781   0.781   0.781   0.781   0.781   0.781   0.781   0.781   0.781   0.781   0.781   0.781   0.781   0.781   0.781   0.781   0.781   0.781   0.781   0.781   0.781   0.781   0.781   0.781   0.781   0.781   0.781   0.781   0.781   0.781   0.781   0.781   0.781   0.781   0.781   0.781   0.781   0.781   0.781   0.781   0.781   0.781   0.781   0.781   0.781   0.781   0.781   0.781   0.781   0.781   0.781   0.781   0.781   0.781   0.781   0.781   0.781   0.781   0.781   0.781   0.781   0.781   0.781   0.781   0.781   0.781   0.781   0.781   0.781   0.781   0.781   0.781   0.781   0.781   0.781   0.781   0.781   0.781   0.781   0.781   0.781   0.781   0.781   0.781   0.781   0.781   0.781   0.781   0.781   0.781   0.781   0.781   0.781   0.781   0.781   0.781   0.781   0.781   0.781   0.781   0.781   0.781   0.781   0.781   0.781   0.781   0.781   0.781   0.781   0.781   0.781   0.781   0.781   0.781   0.781   0.781   0.781

   Mean standard deviation across all grid points:
      u component:    1.238 m/s
      v component:    1.199 m/s
      w component:    0.781 m/s


U-component (X) statistics from the interpolated hub point:

   Mean =   7.6768 m/s
   TI   =  12.6788 %


Processing complete.  62.453 CPU seconds used.
