
This summary file was generated by TurbSim (from OpenFAST-v4.1.2) on 24-Feb-2026 at 12:44:07.


Runtime Options:

-214348768  Random seed #1
    RANLUX  Type of random number generator
         F  Output binary HH turbulence parameters?
         F  Output formatted turbulence parameters?
         F  Output AeroDyn HH files?
         T  Output AeroDyn FF files?
         F  Output BLADED FF files?
         F  Output tower data?
         F  Output HAWC FF files?
         T  Output formatted FF files?
         F  Output coherent turbulence time step file?
 0 -  NONE  IEC turbulence models scaled to exact specified standard deviation


Turbine/Model Specifications:

        18  Vertical grid-point matrix dimension
       160  Horizontal grid-point matrix dimension
     1.000  Time step [seconds]
    90.000  Analysis time [seconds]
    90.000  Usable output time [seconds]
    90.000  Hub height [m]
   180.000  Grid height [m]
  1600.000  Grid width [m]
     0.000  Vertical flow angle [degrees]
     8.000  Horizontal flow angle [degrees]


Meteorological Boundary Conditions:

    IECKAI  IEC Kaimal spectral model
         1  IEC standard: IEC 61400-1 Ed. 3: 2005
         A  IEC turbulence characteristic
       NTM  IEC Normal Turbulence Model
       N/A  IEC Extreme Turbulence Model (ETM) "c" parameter [m/s]
       PL   Wind profile type
    90.000  Reference height [m]
     7.000  Reference wind speed [m/s]
       N/A  Jet height [m]
     0.200  Power law exponent
     0.030  Surface roughness length [m]


Non-IEC Meteorological Boundary Conditions:

       N/A  Site latitude [degrees]
       N/A  Gradient Richardson number
       N/A  Friction or shear velocity [m/s]
       N/A  Mixing layer depth [m]
       N/A  Mean hub u'w' Reynolds stress
       N/A  Mean hub u'v' Reynolds stress
       N/A  Mean hub v'w' Reynolds stress


Spatial Coherence Models:

       IEC  u-component coherence model
      NONE  v-component coherence model
      NONE  w-component coherence model
(   12.000, 0.353E-03)  u-component coherence parameters
                   N/A  v-component coherence parameters
                   N/A  w-component coherence parameters
       N/A  Coherence exponent


You have requested that the following file(s) be generated:

   Generator_Ambient/TurbSim2.bts (AeroDyn/TurbSim full-field wind file)
   Generator_Ambient/TurbSim2.u (formatted full-field U-component file)
   Generator_Ambient/TurbSim2.v (formatted full-field V-component file)
   Generator_Ambient/TurbSim2.w (formatted full-field W-component file)


Turbulence Simulation Scaling Parameter Summary:

   Turbulence model used                            =  IEC Kaimal
   Turbulence characteristic                        =  A
   IEC turbulence type                              =  Normal Turbulence Model
   IEC standard                                     =  IEC 61400-1 Ed. 3: 2005
   Mean wind speed at hub height                    =    7.000 m/s
   Expected value of turbulence intensity at 15 m/s =   16.000%
   Characteristic value of standard deviation       =    1.736 m/s
   Turbulence scale                                 =   42.000 m
   u-component integral scale                       =  340.200 m
   Coherency scale                                  =  340.200 m
   Characteristic value of hub turbulence intensity =   24.800%
   Gradient Richardson number                       =    0.000

   Wind profile type                                =  Power law
   Power law exponent                               =    0.200
   Mean shear across rotor disk                     =    0.045 (m/s)/m
   Assumed rotor diameter                           =  180.000 m
   Surface roughness length                         =    0.030 m

   Nyquist frequency of turbulent wind field        =    0.500 Hz

   Number of time steps in the FFT                  =       90
   Number of time steps output                      =       90
   Number of points simulated                       =     2881


Mean Flow Angles:

   Vertical   =   0.0 degrees
   Horizontal =   8.0 degrees

Mean Wind Speed Profile:

   Height    Wind Speed   Horizontal Angle  Vertical Angle  U-comp (X)   V-comp (Y)   W-comp (Z)
     (m)        (m/s)         (degrees)       (degrees)       (m/s)        (m/s)        (m/s)   
   ------    ----------   ----------------  --------------  ----------   ----------   ----------
    180.0        8.04            8.00            0.00          7.96         1.12         0.00
    169.4        7.94            8.00            0.00          7.87         1.11         0.00
    158.8        7.84            8.00            0.00          7.77         1.09         0.00
    148.2        7.73            8.00            0.00          7.66         1.08         0.00
    137.6        7.62            8.00            0.00          7.55         1.06         0.00
    127.1        7.50            8.00            0.00          7.43         1.04         0.00
    116.5        7.37            8.00            0.00          7.30         1.03         0.00
    105.9        7.23            8.00            0.00          7.16         1.01         0.00
     95.3        7.08            8.00            0.00          7.01         0.99         0.00
     90.0        7.00            8.00            0.00          6.93         0.97         0.00
     84.7        6.92            8.00            0.00          6.85         0.96         0.00
     74.1        6.73            8.00            0.00          6.67         0.94         0.00
     63.5        6.53            8.00            0.00          6.47         0.91         0.00
     52.9        6.30            8.00            0.00          6.23         0.88         0.00
     42.4        6.02            8.00            0.00          5.96         0.84         0.00
     31.8        5.68            8.00            0.00          5.63         0.79         0.00
     21.2        5.24            8.00            0.00          5.19         0.73         0.00
     10.6        4.56            8.00            0.00          4.52         0.63         0.00
      0.0        0.45            8.00            0.00          0.45         0.06         0.00


Harvested Random Seeds after Generation of the Random Numbers:

      3613730 K 1
            0 K 2


Hub-Height Simulated Turbulence Statistical Summary:

   Type of Wind        Min (m/s)   Mean (m/s)    Max (m/s)  Sigma (m/s)       TI (%)
   ----------------    ---------   ----------    ---------  -----------       ------
   Longitudinal (u)         4.16         7.00        10.40        1.410       20.138
   Lateral (v)             -2.90        -0.00         2.52        1.128       16.119
   Vertical (w)            -1.58         0.00         2.28        0.744       10.632
   U component              4.08         6.93        10.32        1.452       20.944
   V component             -1.59         0.97         3.28        1.074       15.487
   W component             -1.58         0.00         2.28        0.744       10.736
   Horizontal (U&V)         4.17         7.09        10.40        1.419       20.013
   Total                    4.18         7.13        10.42        1.417       19.885

                       Min Reynolds     Mean Reynolds    Max Reynolds    Correlation
   Product             Stress (m/s)^2   Stress (m/s)^2   Stress (m/s)^2  Coefficient
   ----------------    --------------   --------------   --------------  -----------
   u'w'                     -1.915             0.352             4.472         0.335
   u'v'                     -6.464            -0.488             2.670        -0.307
   v'w'                     -4.573            -0.242             1.816        -0.289


   Friction Velocity (Ustar)  =      0.593 m/s
   Maximum Instantaneous TKE  =      7.933 (m/s)^2
   Maximum Instantaneous CTKE =      4.331 (m/s)^2


Grid Point Variance Summary:

   Y-coord -800.00 -789.94 -779.87 -769.81 -759.75 -749.69 -739.62 -729.56 -719.50 -709.43 -699.37 -689.31 -679.25 -669.18 -659.12 -649.06 -638.99 -628.93 -618.87 -608.81 -598.74 -588.68 -578.62 -568.55 -558.49 -548.43 -538.36 -528.30 -518.24 -508.18 -498.11 -488.05 -477.99 -467.92 -457.86 -447.80 -437.74 -427.67 -417.61 -407.55 -397.48 -387.42 -377.36 -367.30 -357.23 -347.17 -337.11 -327.04 -316.98 -306.92 -296.86 -286.79 -276.73 -266.67 -256.60 -246.54 -236.48 -226.42 -216.35 -206.29 -196.23 -186.16 -176.10 -166.04 -155.97 -145.91 -135.85 -125.79 -115.72 -105.66  -95.60  -85.53  -75.47  -65.41  -55.35  -45.28  -35.22  -25.16  -15.09   -5.03    5.03   15.09   25.16   35.22   45.28   55.35   65.41   75.47   85.53   95.60  105.66  115.72  125.79  135.85  145.91  155.97  166.04  176.10  186.16  196.23  206.29  216.35  226.42  236.48  246.54  256.60  266.67  276.73  286.79  296.86  306.92  316.98  327.04  337.11  347.17  357.23  367.30  377.36  387.42  397.48  407.55  417.61  427.67  437.74  447.80  457.86  467.92  477.99  488.05  498.11  508.18  518.24  528.30  538.36  548.43  558.49  568.55  578.62  588.68  598.74  608.81  618.87  628.93  638.99  649.06  659.12  669.18  679.25  689.31  699.37  709.43  719.50  729.56  739.62  749.69  759.75  769.81  779.87  789.94  800.00

   Height   Standard deviation at grid points for the u component:
   180.00    1.184   1.175   1.253   1.233   1.001   1.250   1.205   1.157   1.086   1.412   1.233   1.389   1.356   1.283   1.274   1.276   1.249   1.467   1.489   1.505   0.986   0.777   1.064   0.880   0.904   0.885   0.947   1.096   1.062   1.031   1.326   1.575   1.175   1.211   1.233   1.475   1.220   1.034   1.289   1.189   1.020   1.188   1.163   1.375   1.531   1.244   1.035   1.137   1.184   1.193   0.919   0.840   0.943   1.012   0.891   1.204   1.331   1.312   1.632   2.002   1.589   1.569   2.141   2.235   1.687   1.612   1.059   1.235   0.871   0.967   1.158   1.173   1.170   1.369   1.370   1.067   1.325   1.446   1.157   0.903   0.779   0.822   0.815   0.727   0.834   0.776   0.836   0.951   0.977   0.820   0.933   0.945   0.717   0.867   0.905   1.143   0.894   1.197   0.976   1.057   1.186   1.098   1.146   1.390   1.163   1.370   1.328   1.091   1.113   0.910   1.268   1.251   1.100   1.246   1.370   1.123   1.092   1.190   1.483   1.383   1.334   1.165   1.315   1.421   0.977   1.000   1.094   0.927   0.827   0.949   1.036   1.057   1.453   1.293   1.378   1.521   1.494   1.149   0.915   1.389   1.446   1.133   1.287   1.091   1.202   1.305   1.369   1.314   1.498   1.581   1.436   1.179   1.016   1.033   0.954   1.079   1.312   1.105   1.051   0.943
   169.41    1.136   0.995   0.967   0.898   1.099   0.898   1.072   1.290   0.941   1.260   1.453   1.088   1.230   1.027   1.204   1.197   1.066   1.299   1.062   1.266   0.796   1.063   1.055   0.802   0.730   0.927   1.004   1.014   0.871   1.151   1.378   1.276   1.345   1.440   1.252   1.009   1.118   1.037   1.055   1.138   1.149   1.232   1.343   1.285   1.613   1.536   1.186   0.994   1.109   1.195   1.284   0.855   1.144   0.965   1.008   1.239   1.058   1.218   1.427   1.535   1.875   2.187   1.975   2.291   2.083   1.445   1.208   1.306   0.977   0.999   1.365   1.398   1.202   1.276   1.297   1.296   1.286   1.196   1.252   0.742   0.888   0.942   1.030   0.963   0.942   1.014   0.931   0.851   0.990   0.925   0.838   1.096   1.134   0.764   0.935   0.964   1.211   0.876   1.022   0.821   1.060   1.056   0.964   1.075   1.242   0.991   0.897   1.165   1.098   1.103   1.498   1.248   1.273   1.127   1.375   0.868   1.003   0.982   1.173   1.421   1.345   1.303   1.197   1.267   1.019   0.753   0.873   1.014   0.934   0.945   1.192   1.423   1.591   1.356   1.295   1.532   1.439   1.313   1.315   1.316   1.331   0.907   1.053   0.894   1.110   1.182   1.281   1.147   1.142   0.992   0.970   1.113   0.996   1.250   0.804   1.174   1.073   0.997   0.869   0.873
   158.82    0.922   1.273   1.083   0.889   0.860   0.979   1.228   1.191   1.243   1.279   1.285   1.518   1.122   1.148   1.093   1.115   1.130   1.109   0.923   1.047   1.087   1.013   1.072   1.224   0.973   1.107   0.822   1.171   1.021   1.457   1.640   1.255   1.075   1.007   1.076   0.995   0.806   0.827   0.678   1.124   1.050   1.099   1.313   1.659   1.266   1.634   1.251   1.186   0.944   1.289   1.361   1.176   1.074   1.037   0.988   1.084   1.378   1.409   1.481   1.268   1.858   2.035   2.238   1.964   1.775   1.786   1.313   1.124   0.990   1.331   1.065   1.373   1.295   1.252   1.009   0.775   0.958   0.931   1.119   0.912   1.047   1.262   1.222   0.944   1.181   0.740   1.102   1.104   0.860   0.958   0.944   1.076   1.023   0.878   1.093   0.976   0.863   0.865   1.005   1.024   0.837   0.961   1.071   0.826   1.210   0.989   1.123   0.960   0.920   1.294   1.428   1.383   1.491   0.971   1.130   1.215   0.812   0.839   1.046   1.400   1.154   1.347   0.892   0.862   1.182   1.124   1.016   1.049   1.075   0.953   1.061   1.165   1.329   1.149   1.325   1.430   1.514   1.497   1.668   1.397   1.240   1.045   1.131   1.264   0.943   1.018   0.932   1.216   0.905   0.907   1.120   1.002   1.008   1.024   1.083   1.249   0.890   0.946   0.835   0.797
   148.24    1.195   1.246   0.971   1.155   1.188   0.850   0.894   1.027   1.038   0.970   1.108   1.250   1.020   1.142   0.879   0.949   1.082   0.954   1.153   1.431   0.949   1.147   1.075   1.065   1.033   1.143   0.893   1.120   1.250   1.268   1.240   1.169   1.002   0.799   1.017   1.213   0.842   1.271   1.151   1.335   1.100   0.880   1.131   1.279   1.317   1.339   1.360   1.068   1.056   1.052   1.224   0.815   1.004   0.975   1.023   1.196   1.189   1.295   1.550   1.738   1.745   1.943   1.875   1.677   1.575   1.298   1.525   1.356   1.012   1.033   0.982   1.189   1.196   0.923   0.909   0.797   0.972   0.990   0.921   1.091   0.947   1.078   1.102   1.058   1.027   1.156   1.191   1.337   0.947   0.895   0.797   0.893   1.044   0.976   0.917   0.913   0.855   0.928   0.640   1.051   1.167   1.364   1.300   1.122   1.270   1.167   1.581   1.250   1.323   1.106   1.514   1.505   1.411   1.281   0.862   0.927   0.835   0.864   0.944   1.102   1.328   1.361   1.276   1.219   0.990   1.152   0.927   0.890   1.029   1.110   1.380   0.896   1.193   1.112   1.298   1.273   1.105   1.341   1.328   1.473   1.415   1.455   1.134   0.883   1.230   1.081   1.075   1.149   1.346   1.049   1.377   1.123   1.101   1.387   1.004   0.892   1.095   0.800   0.831   0.917
   137.65    1.273   1.021   1.266   0.810   0.935   1.126   1.172   1.130   1.038   0.862   0.943   0.939   0.974   0.864   0.926   1.091   1.140   1.201   1.143   1.181   1.353   0.950   0.911   0.690   0.793   0.972   0.832   0.957   1.019   1.085   1.341   0.881   0.716   0.998   1.017   1.032   1.146   1.078   1.237   0.887   1.027   1.224   1.154   0.954   1.214   1.116   1.086   0.933   0.868   1.007   1.102   1.113   1.011   0.954   0.784   1.123   1.168   1.262   1.258   1.540   1.241   1.502   1.408   1.424   1.389   1.686   1.583   1.250   1.032   0.961   1.494   1.145   1.214   0.825   0.981   0.717   1.025   0.736   0.992   1.139   1.088   0.987   0.950   0.773   0.740   1.052   1.352   0.977   1.074   1.237   1.098   1.042   1.048   0.962   0.979   1.175   0.976   1.112   1.093   1.123   1.392   1.289   1.059   1.083   1.350   1.686   1.653   1.293   1.363   1.236   1.442   1.640   1.061   1.185   0.986   0.671   0.791   0.756   0.954   1.223   1.273   1.073   1.181   0.996   1.077   1.064   1.004   0.948   0.995   1.280   1.204   1.202   1.165   1.039   1.410   1.259   1.040   1.174   1.117   1.326   1.286   1.353   1.090   1.395   1.424   1.422   0.919   0.928   0.950   1.212   1.182   1.137   1.308   1.406   0.963   0.935   0.764   0.996   0.981   0.866
   127.06    1.077   0.893   1.128   1.055   1.090   1.278   1.051   1.072   1.112   0.875   1.167   0.945   1.187   1.045   1.045   1.087   1.233   0.989   1.021   1.065   1.233   0.711   0.903   1.009   1.056   0.839   0.659   0.821   0.880   0.860   1.039   1.128   0.947   1.003   0.893   0.863   0.922   1.034   1.123   1.088   0.950   0.989   0.817   0.831   1.051   0.849   0.800   0.918   0.781   0.823   1.205   0.913   0.951   0.780   1.142   0.981   0.970   1.011   1.143   1.318   1.071   1.178   1.096   0.824   1.150   1.676   1.708   1.231   1.650   1.457   1.396   1.447   1.006   0.942   1.038   1.003   0.796   1.152   0.969   1.101   0.981   1.083   1.185   0.928   1.138   1.204   1.412   1.081   0.993   0.988   1.048   1.250   0.935   1.113   1.110   1.096   0.805   0.887   0.972   1.313   1.063   1.247   1.513   1.205   1.484   1.388   1.236   1.152   1.197   1.053   1.111   1.246   1.161   0.968   0.857   0.736   0.788   1.057   1.257   1.095   1.113   0.930   1.169   0.927   0.809   0.913   1.030   0.943   0.948   1.104   1.189   0.977   1.246   0.838   1.240   1.470   1.104   0.846   0.988   0.978   1.056   1.060   1.001   1.179   1.098   0.950   1.069   1.009   0.781   1.025   1.076   0.995   0.891   1.086   1.251   0.936   0.915   0.996   1.025   1.039
   116.47    0.862   0.889   0.977   1.326   1.271   1.100   0.922   0.936   0.948   0.998   1.111   0.808   0.893   1.225   1.075   1.360   1.203   0.967   0.941   1.081   0.932   0.788   0.825   0.916   0.755   0.983   0.982   0.814   0.979   1.040   1.235   1.017   1.200   0.986   0.836   0.791   0.976   0.828   0.887   0.889   0.863   0.818   0.932   0.717   0.829   0.952   1.042   0.880   0.936   1.103   1.263   1.101   0.915   1.174   1.136   0.971   0.894   1.038   1.092   1.186   1.159   1.467   1.296   1.263   1.015   1.219   1.487   1.362   1.422   1.564   1.737   1.310   0.982   0.974   0.957   0.932   1.126   1.094   1.115   1.138   1.171   0.719   1.082   0.795   1.090   1.119   1.198   1.250   1.448   1.175   1.113   1.298   1.506   1.266   0.756   0.814   0.896   1.238   1.182   1.148   1.297   1.500   1.180   1.464   1.211   1.184   1.253   1.292   1.377   1.046   0.990   0.919   0.890   1.032   1.212   0.918   1.060   0.993   0.981   1.009   0.858   1.062   1.123   1.302   1.041   1.257   0.930   1.101   1.219   1.169   1.200   0.881   1.057   0.883   1.245   1.283   1.182   1.039   1.001   0.858   0.947   0.989   0.938   0.921   1.093   0.990   0.863   1.001   0.914   1.062   1.145   1.028   0.764   0.761   1.034   1.347   0.921   0.903   1.009   1.078
   105.88    0.923   0.873   0.761   1.001   1.315   1.117   0.848   0.811   0.900   0.894   0.773   0.865   1.236   1.124   1.082   1.231   1.006   1.129   0.912   0.878   1.087   0.861   0.879   1.016   1.174   1.112   0.903   1.043   1.033   0.959   0.820   1.072   0.963   1.226   0.648   0.991   0.921   0.933   1.112   1.324   1.005   1.127   0.950   0.866   0.871   1.046   0.871   1.094   0.635   0.968   0.980   1.067   1.197   1.271   0.998   0.672   0.997   1.196   1.176   1.361   1.202   1.281   1.143   1.164   0.918   0.907   0.924   1.279   1.207   1.346   1.385   1.619   1.021   1.187   0.933   0.959   1.074   0.966   1.181   1.260   1.204   1.065   1.078   0.895   1.009   1.034   0.930   1.098   1.126   1.298   1.052   1.091   1.298   1.146   1.008   0.926   1.055   1.166   1.195   1.030   1.425   1.292   1.538   1.079   1.312   1.276   1.214   1.174   1.178   0.941   0.930   0.949   0.888   0.897   1.069   1.026   1.030   1.156   0.907   0.947   0.992   1.011   1.028   1.196   1.215   0.997   1.029   1.102   0.973   1.111   1.075   0.805   1.172   0.856   1.099   1.302   1.117   0.997   1.107   1.026   0.935   1.161   1.274   1.047   1.188   1.034   1.185   0.870   0.786   1.013   0.975   0.790   0.842   1.062   1.436   1.162   1.192   1.118   1.053   0.979
    95.29    0.995   1.051   0.885   0.971   1.129   1.404   1.069   0.923   0.880   1.033   0.958   0.760   0.936   0.868   1.086   1.247   1.039   0.856   1.169   0.986   0.967   0.941   1.066   1.271   1.106   1.046   0.984   0.869   0.913   0.934   1.040   0.920   0.904   1.105   1.091   1.465   1.248   1.011   1.241   1.248   1.230   1.218   0.772   1.025   1.052   0.970   1.156   1.175   1.038   0.855   1.016   1.244   1.177   1.114   0.772   0.970   1.119   1.446   1.195   0.914   0.909   0.964   0.948   1.099   0.869   1.379   1.031   1.486   1.544   1.249   1.290   1.261   1.180   0.857   0.770   1.157   0.846   1.001   1.013   1.418   1.321   1.252   0.898   0.972   0.798   0.882   0.991   1.099   1.046   1.176   1.204   1.190   1.616   1.392   1.257   1.243   1.036   1.171   1.209   1.037   1.311   1.324   1.516   1.427   1.098   1.154   0.972   0.937   1.029   1.041   1.294   1.045   0.765   1.025   0.964   0.982   0.934   1.097   0.775   0.852   0.839   0.955   1.136   1.317   1.024   0.872   1.124   1.036   0.855   1.008   0.876   0.957   1.032   0.937   1.223   1.273   1.059   0.917   0.943   1.419   1.450   1.361   1.137   1.182   1.055   0.945   1.015   1.007   0.896   0.946   0.707   0.878   1.001   1.200   1.308   1.293   0.924   0.887   0.749   1.264
    84.71    1.004   1.102   0.935   0.874   1.043   1.271   1.081   0.825   0.881   1.008   0.920   0.849   0.745   1.045   1.202   1.357   0.911   0.833   0.994   0.822   0.820   0.810   0.886   1.126   0.937   0.995   1.098   0.906   0.888   1.024   0.983   1.014   1.052   1.123   1.400   1.531   1.461   1.340   1.009   1.025   1.273   1.169   0.865   0.979   0.876   0.789   0.981   1.139   1.129   0.941   1.001   0.824   0.987   0.959   0.913   0.928   1.087   1.104   0.968   1.094   0.917   1.155   1.252   1.192   0.741   1.220   1.544   1.441   1.641   1.764   1.529   1.397   1.065   0.932   1.163   1.163   1.074   1.276   0.833   1.330   1.507   1.003   1.108   0.934   0.973   0.765   1.031   0.920   1.004   1.160   1.471   1.619   1.488   1.286   1.061   0.891   1.116   1.244   1.125   0.846   0.860   1.080   1.185   1.188   0.878   1.077   1.064   1.103   1.022   0.992   1.339   1.164   0.936   1.023   0.912   0.835   0.924   1.028   0.932   1.027   1.056   0.947   1.156   1.050   0.884   0.844   0.850   0.951   0.956   0.975   0.671   0.909   0.993   1.283   1.460   1.373   1.165   1.231   1.316   1.385   1.247   1.076   1.016   0.951   0.984   0.917   0.865   0.943   0.948   0.905   0.837   0.983   1.177   1.247   1.067   1.327   0.926   0.882   1.208   1.436
    74.12    1.085   1.072   1.160   0.903   0.923   1.165   0.866   1.160   1.411   1.040   1.117   0.959   0.985   0.875   0.887   1.042   0.973   0.894   1.091   1.066   0.783   1.067   1.356   0.946   0.865   1.111   1.149   0.996   1.255   0.979   1.088   0.917   1.190   1.353   1.391   1.283   1.231   1.016   0.787   0.966   1.114   1.169   1.207   0.869   0.983   0.981   1.216   1.226   0.974   0.869   0.822   0.869   0.933   0.772   0.895   0.962   1.013   1.077   0.953   0.731   1.041   1.189   1.245   1.028   1.191   1.337   1.255   1.455   1.480   1.304   1.641   1.356   1.400   1.230   1.527   1.447   1.775   1.683   1.303   1.295   1.314   1.154   1.037   0.786   0.888   0.811   0.965   1.021   0.953   1.014   1.447   1.292   1.453   1.194   1.139   1.149   0.989   0.793   0.929   0.834   0.988   1.062   0.892   0.889   1.132   1.208   0.835   1.168   1.202   1.342   1.050   1.334   1.261   1.087   1.079   1.372   0.957   0.915   0.985   1.154   0.929   1.075   1.072   1.053   1.044   1.018   1.025   0.940   0.884   0.932   0.948   1.304   1.029   1.466   1.589   1.098   1.100   1.158   1.514   1.116   1.013   1.015   0.986   0.984   0.996   0.799   0.970   0.825   1.073   0.946   0.700   1.215   1.280   1.343   1.363   1.561   1.358   1.279   1.127   1.214
    63.53    1.389   1.420   1.093   0.924   0.890   1.075   1.002   1.066   1.240   1.084   0.972   0.943   0.902   0.845   1.077   1.103   0.765   0.798   0.810   1.139   1.124   1.326   1.330   1.309   0.988   1.056   1.145   1.054   1.145   1.335   1.329   0.934   1.214   1.380   1.265   0.887   1.137   1.197   1.115   1.133   0.848   1.051   1.235   1.344   1.386   1.050   1.241   1.013   1.308   1.106   1.043   0.914   1.187   1.294   1.180   0.906   1.186   0.773   0.910   1.052   0.892   0.977   1.227   1.020   1.219   1.246   1.005   1.191   1.315   1.387   1.368   1.481   1.393   1.271   1.257   1.683   1.387   1.700   1.268   1.275   1.135   0.900   1.125   1.061   0.955   0.855   1.217   1.060   1.134   1.236   1.203   1.353   1.384   1.084   1.081   1.372   1.101   1.347   1.293   0.897   1.298   0.950   0.951   0.995   1.187   1.171   0.931   1.343   1.519   1.285   1.121   0.950   1.143   1.405   1.506   1.355   1.052   0.848   0.755   1.038   0.955   0.931   1.234   1.153   1.343   0.911   0.901   0.911   1.039   0.949   1.150   1.380   1.056   1.183   1.270   1.014   0.981   0.831   1.217   1.224   1.249   1.174   0.792   0.828   0.986   0.951   0.873   0.906   0.782   1.013   0.983   1.539   1.243   1.655   1.680   1.899   1.442   1.158   1.119   0.942
    52.94    1.667   1.437   1.423   1.266   1.075   1.465   1.423   1.515   1.228   1.355   1.534   1.160   0.850   1.268   1.349   1.143   1.059   0.942   0.946   1.071   1.010   1.192   1.078   0.918   0.931   1.095   1.059   1.261   1.035   0.959   1.081   0.827   1.043   0.975   1.278   1.099   0.988   1.050   0.824   1.140   0.983   0.820   1.004   1.296   1.240   1.405   0.923   1.027   1.145   1.212   1.068   1.185   0.991   1.245   0.974   1.257   1.074   1.042   0.978   0.848   0.988   1.123   1.180   0.946   1.163   1.321   0.782   0.997   1.207   1.490   1.103   1.310   1.277   1.427   1.403   1.627   1.634   1.631   1.395   0.953   1.129   1.161   1.538   1.088   0.963   1.109   1.184   1.313   1.007   1.150   1.053   1.075   1.203   0.997   0.914   1.070   1.095   1.308   1.657   1.236   1.345   1.149   1.345   1.149   1.016   1.371   1.238   1.287   1.252   1.184   0.932   1.018   1.188   1.238   1.385   0.999   0.863   0.815   1.319   1.168   1.400   1.515   1.206   1.573   1.543   0.918   0.983   1.095   1.114   0.968   1.013   0.940   1.045   1.239   1.224   0.980   0.990   0.917   1.208   0.954   1.368   1.100   0.884   0.742   0.884   1.085   0.923   0.892   1.127   1.034   1.054   1.416   1.721   1.612   1.602   1.690   1.629   1.164   0.959   1.304
    42.35    1.410   1.518   1.475   1.096   1.016   1.196   1.316   1.468   1.475   1.439   1.231   1.312   1.113   1.110   0.979   0.953   1.073   1.274   1.215   1.004   1.106   1.148   1.239   1.190   1.031   0.764   0.901   0.992   0.954   0.723   0.916   0.757   0.975   1.159   1.293   1.400   1.517   1.426   1.060   1.192   1.273   1.246   1.501   1.672   1.130   1.199   1.040   0.919   0.910   1.124   1.303   0.952   0.975   1.091   1.126   1.190   1.053   1.305   1.045   0.911   1.211   0.988   1.144   1.086   1.233   1.211   1.273   0.952   1.205   1.157   1.162   1.013   1.027   0.910   1.329   1.482   1.424   1.352   1.170   1.438   1.255   1.154   1.409   1.060   1.160   0.992   1.435   1.225   1.044   1.019   1.037   0.983   1.219   1.068   0.873   1.018   0.879   1.053   1.411   1.753   1.698   1.644   1.146   1.172   1.322   1.455   1.202   0.989   1.240   1.142   1.279   1.064   1.089   1.232   1.289   1.093   0.994   1.192   1.357   1.346   1.580   1.397   1.357   1.664   1.315   1.250   0.992   0.757   1.016   1.006   0.994   0.831   0.909   0.928   0.904   0.980   1.045   1.154   0.888   1.320   1.222   1.213   0.989   0.979   1.175   0.901   1.023   1.042   0.946   1.017   0.769   1.115   1.390   1.337   1.413   1.186   1.415   1.227   1.187   1.287
    31.76    1.301   1.045   1.209   1.096   1.025   0.997   0.954   1.161   1.671   1.668   1.571   1.237   1.331   1.001   0.904   0.821   0.904   1.132   1.185   1.001   1.160   1.142   1.059   1.256   1.230   1.008   1.120   0.803   0.877   0.661   0.771   1.070   1.130   0.874   0.847   0.971   1.243   1.485   1.176   1.365   1.473   1.634   1.708   1.676   1.260   1.252   1.155   1.275   1.115   1.121   1.324   1.099   0.969   1.116   0.697   0.945   1.328   1.295   1.033   1.279   1.492   1.412   1.175   0.950   1.022   1.010   1.040   1.045   1.233   0.965   0.801   0.708   0.781   1.106   1.260   1.393   1.207   1.093   1.202   1.093   1.222   1.234   1.330   1.270   1.224   0.888   1.345   1.578   1.547   1.138   1.120   1.047   1.222   0.933   1.033   0.910   1.044   1.194   1.278   1.756   1.652   1.360   1.165   1.154   0.996   1.132   0.913   1.037   1.094   0.962   1.118   1.150   1.078   0.981   1.043   1.308   1.146   1.586   1.350   1.335   1.863   1.667   1.708   1.801   1.315   1.563   1.357   0.884   0.952   1.113   1.397   1.181   1.166   0.880   0.732   0.941   1.185   1.180   1.155   1.398   1.190   1.285   0.744   1.150   1.074   1.071   1.199   0.864   0.742   0.923   1.032   1.299   1.044   0.990   1.259   1.269   1.635   1.366   1.470   1.056
    21.18    1.291   1.089   1.361   1.006   1.094   1.260   1.184   1.263   1.508   1.516   1.184   1.494   1.552   1.404   1.141   0.856   1.392   1.268   1.143   1.143   1.215   0.996   0.923   1.094   0.871   0.983   0.940   1.123   0.852   0.893   1.203   1.048   1.007   0.856   0.855   1.053   1.144   1.469   1.010   1.274   1.305   1.539   1.737   1.695   1.655   1.165   1.092   1.155   1.415   1.177   1.580   1.194   1.136   0.892   1.040   1.138   1.295   0.920   1.257   1.467   1.589   1.475   1.550   1.204   0.992   0.942   1.063   1.027   1.115   1.111   0.884   1.023   0.813   1.159   1.352   1.280   1.273   1.248   0.963   1.272   1.090   0.990   0.985   0.949   1.143   1.086   1.274   1.469   1.014   1.146   0.968   1.075   1.052   0.849   0.823   0.996   1.181   1.460   1.293   1.622   1.752   1.732   1.497   1.587   1.291   1.531   1.262   1.205   1.314   1.316   1.093   1.071   1.109   1.181   0.901   1.231   1.383   1.596   1.604   1.598   1.594   1.797   2.082   1.652   1.540   1.783   1.176   1.076   0.823   1.012   1.138   1.135   1.361   1.020   0.886   1.343   1.157   1.150   1.001   1.234   1.171   1.082   0.942   1.060   1.242   1.050   1.065   1.050   1.242   1.249   1.336   1.450   1.401   1.334   1.388   1.420   1.355   1.448   1.491   1.483
    10.59    1.340   1.142   1.604   1.253   1.428   0.997   1.317   1.422   1.186   1.384   1.443   1.405   1.134   1.080   1.041   1.093   1.379   1.117   1.154   1.275   1.324   1.010   1.171   1.212   0.984   0.960   1.130   0.991   1.080   0.836   0.981   1.031   1.023   0.830   0.975   1.194   1.231   1.296   1.292   0.890   1.048   1.354   1.549   1.368   1.319   1.489   1.428   1.375   1.089   1.322   1.621   1.361   1.516   1.283   0.901   1.079   1.049   0.879   1.206   1.372   1.197   1.203   1.347   0.792   0.990   1.030   1.126   1.233   1.284   1.194   0.960   1.243   1.020   1.061   1.065   1.180   1.181   1.126   0.974   1.071   1.072   1.120   0.911   1.005   0.973   1.034   1.070   1.163   1.369   0.763   0.846   0.946   0.964   1.011   1.386   1.514   1.641   1.486   1.274   1.689   1.636   1.343   1.151   1.331   1.262   1.601   1.816   1.328   1.229   1.247   1.236   1.709   1.120   1.158   0.960   0.945   1.367   1.618   1.430   1.418   1.654   1.245   1.726   1.967   1.812   1.768   1.384   0.885   0.773   0.935   1.179   1.365   1.443   1.371   1.260   1.151   1.291   1.407   1.273   1.386   1.075   1.163   0.969   1.029   1.011   0.817   0.950   1.138   1.379   1.052   1.249   1.528   1.323   1.191   1.070   1.276   1.039   1.176   0.822   1.178
     0.00    1.180   1.259   1.444   1.401   0.931   1.139   1.306   1.029   1.373   1.419   1.652   1.062   0.973   0.731   0.939   1.004   1.299   1.298   0.891   0.965   1.150   0.992   1.264   1.218   0.967   0.952   1.051   1.236   0.958   0.844   1.008   1.240   1.212   1.263   1.083   1.291   0.850   1.069   1.274   0.768   1.090   1.291   1.319   1.574   1.292   1.343   1.460   1.554   1.305   1.463   1.634   1.314   1.509   1.450   0.895   1.132   1.084   1.094   1.262   1.023   1.105   0.931   1.013   0.862   0.882   1.212   0.999   1.120   0.928   1.030   0.978   1.011   1.226   1.041   1.083   1.097   1.096   1.172   1.179   0.992   0.934   1.000   0.937   1.089   1.278   1.390   1.151   0.946   1.128   0.924   0.812   0.865   1.078   0.921   1.236   1.486   1.431   1.398   1.502   1.754   1.484   1.629   1.308   1.509   1.671   1.650   1.439   1.486   1.572   1.381   1.605   1.820   1.647   1.341   1.184   0.991   1.164   1.420   1.548   1.589   1.759   1.389   1.512   1.630   1.766   1.391   1.278   1.087   1.252   0.996   1.180   1.197   1.370   1.362   1.099   1.245   1.030   1.176   1.176   1.195   0.994   0.922   0.984   1.074   1.149   1.239   1.082   0.879   0.967   1.068   1.297   1.151   1.085   0.866   1.231   1.096   1.277   1.010   1.121   1.117

   Height   Standard deviation at grid points for the v component:
   180.00    1.128   1.128   1.128   1.128   1.128   1.128   1.128   1.128   1.128   1.128   1.128   1.128   1.128   1.128   1.128   1.128   1.128   1.128   1.128   1.128   1.128   1.128   1.128   1.128   1.128   1.128   1.128   1.128   1.128   1.128   1.128   1.128   1.128   1.128   1.128   1.128   1.128   1.128   1.128   1.128   1.128   1.128   1.128   1.128   1.128   1.128   1.128   1.128   1.128   1.128   1.128   1.128   1.128   1.128   1.128   1.128   1.128   1.128   1.128   1.128   1.128   1.128   1.128   1.128   1.128   1.128   1.128   1.128   1.128   1.128   1.128   1.128   1.128   1.128   1.128   1.128   1.128   1.128   1.128   1.128   1.128   1.128   1.128   1.128   1.128   1.128   1.128   1.128   1.128   1.128   1.128   1.128   1.128   1.128   1.128   1.128   1.128   1.128   1.128   1.128   1.128   1.128   1.128   1.128   1.128   1.128   1.128   1.128   1.128   1.128   1.128   1.128   1.128   1.128   1.128   1.128   1.128   1.128   1.128   1.128   1.128   1.128   1.128   1.128   1.128   1.128   1.128   1.128   1.128   1.128   1.128   1.128   1.128   1.128   1.128   1.128   1.128   1.128   1.128   1.128   1.128   1.128   1.128   1.128   1.128   1.128   1.128   1.128   1.128   1.128   1.128   1.128   1.128   1.128   1.128   1.128   1.128   1.128   1.128   1.128
   169.41    1.128   1.128   1.128   1.128   1.128   1.128   1.128   1.128   1.128   1.128   1.128   1.128   1.128   1.128   1.128   1.128   1.128   1.128   1.128   1.128   1.128   1.128   1.128   1.128   1.128   1.128   1.128   1.128   1.128   1.128   1.128   1.128   1.128   1.128   1.128   1.128   1.128   1.128   1.128   1.128   1.128   1.128   1.128   1.128   1.128   1.128   1.128   1.128   1.128   1.128   1.128   1.128   1.128   1.128   1.128   1.128   1.128   1.128   1.128   1.128   1.128   1.128   1.128   1.128   1.128   1.128   1.128   1.128   1.128   1.128   1.128   1.128   1.128   1.128   1.128   1.128   1.128   1.128   1.128   1.128   1.128   1.128   1.128   1.128   1.128   1.128   1.128   1.128   1.128   1.128   1.128   1.128   1.128   1.128   1.128   1.128   1.128   1.128   1.128   1.128   1.128   1.128   1.128   1.128   1.128   1.128   1.128   1.128   1.128   1.128   1.128   1.128   1.128   1.128   1.128   1.128   1.128   1.128   1.128   1.128   1.128   1.128   1.128   1.128   1.128   1.128   1.128   1.128   1.128   1.128   1.128   1.128   1.128   1.128   1.128   1.128   1.128   1.128   1.128   1.128   1.128   1.128   1.128   1.128   1.128   1.128   1.128   1.128   1.128   1.128   1.128   1.128   1.128   1.128   1.128   1.128   1.128   1.128   1.128   1.128
   158.82    1.128   1.128   1.128   1.128   1.128   1.128   1.128   1.128   1.128   1.128   1.128   1.128   1.128   1.128   1.128   1.128   1.128   1.128   1.128   1.128   1.128   1.128   1.128   1.128   1.128   1.128   1.128   1.128   1.128   1.128   1.128   1.128   1.128   1.128   1.128   1.128   1.128   1.128   1.128   1.128   1.128   1.128   1.128   1.128   1.128   1.128   1.128   1.128   1.128   1.128   1.128   1.128   1.128   1.128   1.128   1.128   1.128   1.128   1.128   1.128   1.128   1.128   1.128   1.128   1.128   1.128   1.128   1.128   1.128   1.128   1.128   1.128   1.128   1.128   1.128   1.128   1.128   1.128   1.128   1.128   1.128   1.128   1.128   1.128   1.128   1.128   1.128   1.128   1.128   1.128   1.128   1.128   1.128   1.128   1.128   1.128   1.128   1.128   1.128   1.128   1.128   1.128   1.128   1.128   1.128   1.128   1.128   1.128   1.128   1.128   1.128   1.128   1.128   1.128   1.128   1.128   1.128   1.128   1.128   1.128   1.128   1.128   1.128   1.128   1.128   1.128   1.128   1.128   1.128   1.128   1.128   1.128   1.128   1.128   1.128   1.128   1.128   1.128   1.128   1.128   1.128   1.128   1.128   1.128   1.128   1.128   1.128   1.128   1.128   1.128   1.128   1.128   1.128   1.128   1.128   1.128   1.128   1.128   1.128   1.128
   148.24    1.128   1.128   1.128   1.128   1.128   1.128   1.128   1.128   1.128   1.128   1.128   1.128   1.128   1.128   1.128   1.128   1.128   1.128   1.128   1.128   1.128   1.128   1.128   1.128   1.128   1.128   1.128   1.128   1.128   1.128   1.128   1.128   1.128   1.128   1.128   1.128   1.128   1.128   1.128   1.128   1.128   1.128   1.128   1.128   1.128   1.128   1.128   1.128   1.128   1.128   1.128   1.128   1.128   1.128   1.128   1.128   1.128   1.128   1.128   1.128   1.128   1.128   1.128   1.128   1.128   1.128   1.128   1.128   1.128   1.128   1.128   1.128   1.128   1.128   1.128   1.128   1.128   1.128   1.128   1.128   1.128   1.128   1.128   1.128   1.128   1.128   1.128   1.128   1.128   1.128   1.128   1.128   1.128   1.128   1.128   1.128   1.128   1.128   1.128   1.128   1.128   1.128   1.128   1.128   1.128   1.128   1.128   1.128   1.128   1.128   1.128   1.128   1.128   1.128   1.128   1.128   1.128   1.128   1.128   1.128   1.128   1.128   1.128   1.128   1.128   1.128   1.128   1.128   1.128   1.128   1.128   1.128   1.128   1.128   1.128   1.128   1.128   1.128   1.128   1.128   1.128   1.128   1.128   1.128   1.128   1.128   1.128   1.128   1.128   1.128   1.128   1.128   1.128   1.128   1.128   1.128   1.128   1.128   1.128   1.128
   137.65    1.128   1.128   1.128   1.128   1.128   1.128   1.128   1.128   1.128   1.128   1.128   1.128   1.128   1.128   1.128   1.128   1.128   1.128   1.128   1.128   1.128   1.128   1.128   1.128   1.128   1.128   1.128   1.128   1.128   1.128   1.128   1.128   1.128   1.128   1.128   1.128   1.128   1.128   1.128   1.128   1.128   1.128   1.128   1.128   1.128   1.128   1.128   1.128   1.128   1.128   1.128   1.128   1.128   1.128   1.128   1.128   1.128   1.128   1.128   1.128   1.128   1.128   1.128   1.128   1.128   1.128   1.128   1.128   1.128   1.128   1.128   1.128   1.128   1.128   1.128   1.128   1.128   1.128   1.128   1.128   1.128   1.128   1.128   1.128   1.128   1.128   1.128   1.128   1.128   1.128   1.128   1.128   1.128   1.128   1.128   1.128   1.128   1.128   1.128   1.128   1.128   1.128   1.128   1.128   1.128   1.128   1.128   1.128   1.128   1.128   1.128   1.128   1.128   1.128   1.128   1.128   1.128   1.128   1.128   1.128   1.128   1.128   1.128   1.128   1.128   1.128   1.128   1.128   1.128   1.128   1.128   1.128   1.128   1.128   1.128   1.128   1.128   1.128   1.128   1.128   1.128   1.128   1.128   1.128   1.128   1.128   1.128   1.128   1.128   1.128   1.128   1.128   1.128   1.128   1.128   1.128   1.128   1.128   1.128   1.128
   127.06    1.128   1.128   1.128   1.128   1.128   1.128   1.128   1.128   1.128   1.128   1.128   1.128   1.128   1.128   1.128   1.128   1.128   1.128   1.128   1.128   1.128   1.128   1.128   1.128   1.128   1.128   1.128   1.128   1.128   1.128   1.128   1.128   1.128   1.128   1.128   1.128   1.128   1.128   1.128   1.128   1.128   1.128   1.128   1.128   1.128   1.128   1.128   1.128   1.128   1.128   1.128   1.128   1.128   1.128   1.128   1.128   1.128   1.128   1.128   1.128   1.128   1.128   1.128   1.128   1.128   1.128   1.128   1.128   1.128   1.128   1.128   1.128   1.128   1.128   1.128   1.128   1.128   1.128   1.128   1.128   1.128   1.128   1.128   1.128   1.128   1.128   1.128   1.128   1.128   1.128   1.128   1.128   1.128   1.128   1.128   1.128   1.128   1.128   1.128   1.128   1.128   1.128   1.128   1.128   1.128   1.128   1.128   1.128   1.128   1.128   1.128   1.128   1.128   1.128   1.128   1.128   1.128   1.128   1.128   1.128   1.128   1.128   1.128   1.128   1.128   1.128   1.128   1.128   1.128   1.128   1.128   1.128   1.128   1.128   1.128   1.128   1.128   1.128   1.128   1.128   1.128   1.128   1.128   1.128   1.128   1.128   1.128   1.128   1.128   1.128   1.128   1.128   1.128   1.128   1.128   1.128   1.128   1.128   1.128   1.128
   116.47    1.128   1.128   1.128   1.128   1.128   1.128   1.128   1.128   1.128   1.128   1.128   1.128   1.128   1.128   1.128   1.128   1.128   1.128   1.128   1.128   1.128   1.128   1.128   1.128   1.128   1.128   1.128   1.128   1.128   1.128   1.128   1.128   1.128   1.128   1.128   1.128   1.128   1.128   1.128   1.128   1.128   1.128   1.128   1.128   1.128   1.128   1.128   1.128   1.128   1.128   1.128   1.128   1.128   1.128   1.128   1.128   1.128   1.128   1.128   1.128   1.128   1.128   1.128   1.128   1.128   1.128   1.128   1.128   1.128   1.128   1.128   1.128   1.128   1.128   1.128   1.128   1.128   1.128   1.128   1.128   1.128   1.128   1.128   1.128   1.128   1.128   1.128   1.128   1.128   1.128   1.128   1.128   1.128   1.128   1.128   1.128   1.128   1.128   1.128   1.128   1.128   1.128   1.128   1.128   1.128   1.128   1.128   1.128   1.128   1.128   1.128   1.128   1.128   1.128   1.128   1.128   1.128   1.128   1.128   1.128   1.128   1.128   1.128   1.128   1.128   1.128   1.128   1.128   1.128   1.128   1.128   1.128   1.128   1.128   1.128   1.128   1.128   1.128   1.128   1.128   1.128   1.128   1.128   1.128   1.128   1.128   1.128   1.128   1.128   1.128   1.128   1.128   1.128   1.128   1.128   1.128   1.128   1.128   1.128   1.128
   105.88    1.128   1.128   1.128   1.128   1.128   1.128   1.128   1.128   1.128   1.128   1.128   1.128   1.128   1.128   1.128   1.128   1.128   1.128   1.128   1.128   1.128   1.128   1.128   1.128   1.128   1.128   1.128   1.128   1.128   1.128   1.128   1.128   1.128   1.128   1.128   1.128   1.128   1.128   1.128   1.128   1.128   1.128   1.128   1.128   1.128   1.128   1.128   1.128   1.128   1.128   1.128   1.128   1.128   1.128   1.128   1.128   1.128   1.128   1.128   1.128   1.128   1.128   1.128   1.128   1.128   1.128   1.128   1.128   1.128   1.128   1.128   1.128   1.128   1.128   1.128   1.128   1.128   1.128   1.128   1.128   1.128   1.128   1.128   1.128   1.128   1.128   1.128   1.128   1.128   1.128   1.128   1.128   1.128   1.128   1.128   1.128   1.128   1.128   1.128   1.128   1.128   1.128   1.128   1.128   1.128   1.128   1.128   1.128   1.128   1.128   1.128   1.128   1.128   1.128   1.128   1.128   1.128   1.128   1.128   1.128   1.128   1.128   1.128   1.128   1.128   1.128   1.128   1.128   1.128   1.128   1.128   1.128   1.128   1.128   1.128   1.128   1.128   1.128   1.128   1.128   1.128   1.128   1.128   1.128   1.128   1.128   1.128   1.128   1.128   1.128   1.128   1.128   1.128   1.128   1.128   1.128   1.128   1.128   1.128   1.128
    95.29    1.128   1.128   1.128   1.128   1.128   1.128   1.128   1.128   1.128   1.128   1.128   1.128   1.128   1.128   1.128   1.128   1.128   1.128   1.128   1.128   1.128   1.128   1.128   1.128   1.128   1.128   1.128   1.128   1.128   1.128   1.128   1.128   1.128   1.128   1.128   1.128   1.128   1.128   1.128   1.128   1.128   1.128   1.128   1.128   1.128   1.128   1.128   1.128   1.128   1.128   1.128   1.128   1.128   1.128   1.128   1.128   1.128   1.128   1.128   1.128   1.128   1.128   1.128   1.128   1.128   1.128   1.128   1.128   1.128   1.128   1.128   1.128   1.128   1.128   1.128   1.128   1.128   1.128   1.128   1.128   1.128   1.128   1.128   1.128   1.128   1.128   1.128   1.128   1.128   1.128   1.128   1.128   1.128   1.128   1.128   1.128   1.128   1.128   1.128   1.128   1.128   1.128   1.128   1.128   1.128   1.128   1.128   1.128   1.128   1.128   1.128   1.128   1.128   1.128   1.128   1.128   1.128   1.128   1.128   1.128   1.128   1.128   1.128   1.128   1.128   1.128   1.128   1.128   1.128   1.128   1.128   1.128   1.128   1.128   1.128   1.128   1.128   1.128   1.128   1.128   1.128   1.128   1.128   1.128   1.128   1.128   1.128   1.128   1.128   1.128   1.128   1.128   1.128   1.128   1.128   1.128   1.128   1.128   1.128   1.128
    84.71    1.128   1.128   1.128   1.128   1.128   1.128   1.128   1.128   1.128   1.128   1.128   1.128   1.128   1.128   1.128   1.128   1.128   1.128   1.128   1.128   1.128   1.128   1.128   1.128   1.128   1.128   1.128   1.128   1.128   1.128   1.128   1.128   1.128   1.128   1.128   1.128   1.128   1.128   1.128   1.128   1.128   1.128   1.128   1.128   1.128   1.128   1.128   1.128   1.128   1.128   1.128   1.128   1.128   1.128   1.128   1.128   1.128   1.128   1.128   1.128   1.128   1.128   1.128   1.128   1.128   1.128   1.128   1.128   1.128   1.128   1.128   1.128   1.128   1.128   1.128   1.128   1.128   1.128   1.128   1.128   1.128   1.128   1.128   1.128   1.128   1.128   1.128   1.128   1.128   1.128   1.128   1.128   1.128   1.128   1.128   1.128   1.128   1.128   1.128   1.128   1.128   1.128   1.128   1.128   1.128   1.128   1.128   1.128   1.128   1.128   1.128   1.128   1.128   1.128   1.128   1.128   1.128   1.128   1.128   1.128   1.128   1.128   1.128   1.128   1.128   1.128   1.128   1.128   1.128   1.128   1.128   1.128   1.128   1.128   1.128   1.128   1.128   1.128   1.128   1.128   1.128   1.128   1.128   1.128   1.128   1.128   1.128   1.128   1.128   1.128   1.128   1.128   1.128   1.128   1.128   1.128   1.128   1.128   1.128   1.128
    74.12    1.128   1.128   1.128   1.128   1.128   1.128   1.128   1.128   1.128   1.128   1.128   1.128   1.128   1.128   1.128   1.128   1.128   1.128   1.128   1.128   1.128   1.128   1.128   1.128   1.128   1.128   1.128   1.128   1.128   1.128   1.128   1.128   1.128   1.128   1.128   1.128   1.128   1.128   1.128   1.128   1.128   1.128   1.128   1.128   1.128   1.128   1.128   1.128   1.128   1.128   1.128   1.128   1.128   1.128   1.128   1.128   1.128   1.128   1.128   1.128   1.128   1.128   1.128   1.128   1.128   1.128   1.128   1.128   1.128   1.128   1.128   1.128   1.128   1.128   1.128   1.128   1.128   1.128   1.128   1.128   1.128   1.128   1.128   1.128   1.128   1.128   1.128   1.128   1.128   1.128   1.128   1.128   1.128   1.128   1.128   1.128   1.128   1.128   1.128   1.128   1.128   1.128   1.128   1.128   1.128   1.128   1.128   1.128   1.128   1.128   1.128   1.128   1.128   1.128   1.128   1.128   1.128   1.128   1.128   1.128   1.128   1.128   1.128   1.128   1.128   1.128   1.128   1.128   1.128   1.128   1.128   1.128   1.128   1.128   1.128   1.128   1.128   1.128   1.128   1.128   1.128   1.128   1.128   1.128   1.128   1.128   1.128   1.128   1.128   1.128   1.128   1.128   1.128   1.128   1.128   1.128   1.128   1.128   1.128   1.128
    63.53    1.128   1.128   1.128   1.128   1.128   1.128   1.128   1.128   1.128   1.128   1.128   1.128   1.128   1.128   1.128   1.128   1.128   1.128   1.128   1.128   1.128   1.128   1.128   1.128   1.128   1.128   1.128   1.128   1.128   1.128   1.128   1.128   1.128   1.128   1.128   1.128   1.128   1.128   1.128   1.128   1.128   1.128   1.128   1.128   1.128   1.128   1.128   1.128   1.128   1.128   1.128   1.128   1.128   1.128   1.128   1.128   1.128   1.128   1.128   1.128   1.128   1.128   1.128   1.128   1.128   1.128   1.128   1.128   1.128   1.128   1.128   1.128   1.128   1.128   1.128   1.128   1.128   1.128   1.128   1.128   1.128   1.128   1.128   1.128   1.128   1.128   1.128   1.128   1.128   1.128   1.128   1.128   1.128   1.128   1.128   1.128   1.128   1.128   1.128   1.128   1.128   1.128   1.128   1.128   1.128   1.128   1.128   1.128   1.128   1.128   1.128   1.128   1.128   1.128   1.128   1.128   1.128   1.128   1.128   1.128   1.128   1.128   1.128   1.128   1.128   1.128   1.128   1.128   1.128   1.128   1.128   1.128   1.128   1.128   1.128   1.128   1.128   1.128   1.128   1.128   1.128   1.128   1.128   1.128   1.128   1.128   1.128   1.128   1.128   1.128   1.128   1.128   1.128   1.128   1.128   1.128   1.128   1.128   1.128   1.128
    52.94    1.128   1.128   1.128   1.128   1.128   1.128   1.128   1.128   1.128   1.128   1.128   1.128   1.128   1.128   1.128   1.128   1.128   1.128   1.128   1.128   1.128   1.128   1.128   1.128   1.128   1.128   1.128   1.128   1.128   1.128   1.128   1.128   1.128   1.128   1.128   1.128   1.128   1.128   1.128   1.128   1.128   1.128   1.128   1.128   1.128   1.128   1.128   1.128   1.128   1.128   1.128   1.128   1.128   1.128   1.128   1.128   1.128   1.128   1.128   1.128   1.128   1.128   1.128   1.128   1.128   1.128   1.128   1.128   1.128   1.128   1.128   1.128   1.128   1.128   1.128   1.128   1.128   1.128   1.128   1.128   1.128   1.128   1.128   1.128   1.128   1.128   1.128   1.128   1.128   1.128   1.128   1.128   1.128   1.128   1.128   1.128   1.128   1.128   1.128   1.128   1.128   1.128   1.128   1.128   1.128   1.128   1.128   1.128   1.128   1.128   1.128   1.128   1.128   1.128   1.128   1.128   1.128   1.128   1.128   1.128   1.128   1.128   1.128   1.128   1.128   1.128   1.128   1.128   1.128   1.128   1.128   1.128   1.128   1.128   1.128   1.128   1.128   1.128   1.128   1.128   1.128   1.128   1.128   1.128   1.128   1.128   1.128   1.128   1.128   1.128   1.128   1.128   1.128   1.128   1.128   1.128   1.128   1.128   1.128   1.128
    42.35    1.128   1.128   1.128   1.128   1.128   1.128   1.128   1.128   1.128   1.128   1.128   1.128   1.128   1.128   1.128   1.128   1.128   1.128   1.128   1.128   1.128   1.128   1.128   1.128   1.128   1.128   1.128   1.128   1.128   1.128   1.128   1.128   1.128   1.128   1.128   1.128   1.128   1.128   1.128   1.128   1.128   1.128   1.128   1.128   1.128   1.128   1.128   1.128   1.128   1.128   1.128   1.128   1.128   1.128   1.128   1.128   1.128   1.128   1.128   1.128   1.128   1.128   1.128   1.128   1.128   1.128   1.128   1.128   1.128   1.128   1.128   1.128   1.128   1.128   1.128   1.128   1.128   1.128   1.128   1.128   1.128   1.128   1.128   1.128   1.128   1.128   1.128   1.128   1.128   1.128   1.128   1.128   1.128   1.128   1.128   1.128   1.128   1.128   1.128   1.128   1.128   1.128   1.128   1.128   1.128   1.128   1.128   1.128   1.128   1.128   1.128   1.128   1.128   1.128   1.128   1.128   1.128   1.128   1.128   1.128   1.128   1.128   1.128   1.128   1.128   1.128   1.128   1.128   1.128   1.128   1.128   1.128   1.128   1.128   1.128   1.128   1.128   1.128   1.128   1.128   1.128   1.128   1.128   1.128   1.128   1.128   1.128   1.128   1.128   1.128   1.128   1.128   1.128   1.128   1.128   1.128   1.128   1.128   1.128   1.128
    31.76    1.128   1.128   1.128   1.128   1.128   1.128   1.128   1.128   1.128   1.128   1.128   1.128   1.128   1.128   1.128   1.128   1.128   1.128   1.128   1.128   1.128   1.128   1.128   1.128   1.128   1.128   1.128   1.128   1.128   1.128   1.128   1.128   1.128   1.128   1.128   1.128   1.128   1.128   1.128   1.128   1.128   1.128   1.128   1.128   1.128   1.128   1.128   1.128   1.128   1.128   1.128   1.128   1.128   1.128   1.128   1.128   1.128   1.128   1.128   1.128   1.128   1.128   1.128   1.128   1.128   1.128   1.128   1.128   1.128   1.128   1.128   1.128   1.128   1.128   1.128   1.128   1.128   1.128   1.128   1.128   1.128   1.128   1.128   1.128   1.128   1.128   1.128   1.128   1.128   1.128   1.128   1.128   1.128   1.128   1.128   1.128   1.128   1.128   1.128   1.128   1.128   1.128   1.128   1.128   1.128   1.128   1.128   1.128   1.128   1.128   1.128   1.128   1.128   1.128   1.128   1.128   1.128   1.128   1.128   1.128   1.128   1.128   1.128   1.128   1.128   1.128   1.128   1.128   1.128   1.128   1.128   1.128   1.128   1.128   1.128   1.128   1.128   1.128   1.128   1.128   1.128   1.128   1.128   1.128   1.128   1.128   1.128   1.128   1.128   1.128   1.128   1.128   1.128   1.128   1.128   1.128   1.128   1.128   1.128   1.128
    21.18    1.128   1.128   1.128   1.128   1.128   1.128   1.128   1.128   1.128   1.128   1.128   1.128   1.128   1.128   1.128   1.128   1.128   1.128   1.128   1.128   1.128   1.128   1.128   1.128   1.128   1.128   1.128   1.128   1.128   1.128   1.128   1.128   1.128   1.128   1.128   1.128   1.128   1.128   1.128   1.128   1.128   1.128   1.128   1.128   1.128   1.128   1.128   1.128   1.128   1.128   1.128   1.128   1.128   1.128   1.128   1.128   1.128   1.128   1.128   1.128   1.128   1.128   1.128   1.128   1.128   1.128   1.128   1.128   1.128   1.128   1.128   1.128   1.128   1.128   1.128   1.128   1.128   1.128   1.128   1.128   1.128   1.128   1.128   1.128   1.128   1.128   1.128   1.128   1.128   1.128   1.128   1.128   1.128   1.128   1.128   1.128   1.128   1.128   1.128   1.128   1.128   1.128   1.128   1.128   1.128   1.128   1.128   1.128   1.128   1.128   1.128   1.128   1.128   1.128   1.128   1.128   1.128   1.128   1.128   1.128   1.128   1.128   1.128   1.128   1.128   1.128   1.128   1.128   1.128   1.128   1.128   1.128   1.128   1.128   1.128   1.128   1.128   1.128   1.128   1.128   1.128   1.128   1.128   1.128   1.128   1.128   1.128   1.128   1.128   1.128   1.128   1.128   1.128   1.128   1.128   1.128   1.128   1.128   1.128   1.128
    10.59    1.128   1.128   1.128   1.128   1.128   1.128   1.128   1.128   1.128   1.128   1.128   1.128   1.128   1.128   1.128   1.128   1.128   1.128   1.128   1.128   1.128   1.128   1.128   1.128   1.128   1.128   1.128   1.128   1.128   1.128   1.128   1.128   1.128   1.128   1.128   1.128   1.128   1.128   1.128   1.128   1.128   1.128   1.128   1.128   1.128   1.128   1.128   1.128   1.128   1.128   1.128   1.128   1.128   1.128   1.128   1.128   1.128   1.128   1.128   1.128   1.128   1.128   1.128   1.128   1.128   1.128   1.128   1.128   1.128   1.128   1.128   1.128   1.128   1.128   1.128   1.128   1.128   1.128   1.128   1.128   1.128   1.128   1.128   1.128   1.128   1.128   1.128   1.128   1.128   1.128   1.128   1.128   1.128   1.128   1.128   1.128   1.128   1.128   1.128   1.128   1.128   1.128   1.128   1.128   1.128   1.128   1.128   1.128   1.128   1.128   1.128   1.128   1.128   1.128   1.128   1.128   1.128   1.128   1.128   1.128   1.128   1.128   1.128   1.128   1.128   1.128   1.128   1.128   1.128   1.128   1.128   1.128   1.128   1.128   1.128   1.128   1.128   1.128   1.128   1.128   1.128   1.128   1.128   1.128   1.128   1.128   1.128   1.128   1.128   1.128   1.128   1.128   1.128   1.128   1.128   1.128   1.128   1.128   1.128   1.128
     0.00    1.128   1.128   1.128   1.128   1.128   1.128   1.128   1.128   1.128   1.128   1.128   1.128   1.128   1.128   1.128   1.128   1.128   1.128   1.128   1.128   1.128   1.128   1.128   1.128   1.128   1.128   1.128   1.128   1.128   1.128   1.128   1.128   1.128   1.128   1.128   1.128   1.128   1.128   1.128   1.128   1.128   1.128   1.128   1.128   1.128   1.128   1.128   1.128   1.128   1.128   1.128   1.128   1.128   1.128   1.128   1.128   1.128   1.128   1.128   1.128   1.128   1.128   1.128   1.128   1.128   1.128   1.128   1.128   1.128   1.128   1.128   1.128   1.128   1.128   1.128   1.128   1.128   1.128   1.128   1.128   1.128   1.128   1.128   1.128   1.128   1.128   1.128   1.128   1.128   1.128   1.128   1.128   1.128   1.128   1.128   1.128   1.128   1.128   1.128   1.128   1.128   1.128   1.128   1.128   1.128   1.128   1.128   1.128   1.128   1.128   1.128   1.128   1.128   1.128   1.128   1.128   1.128   1.128   1.128   1.128   1.128   1.128   1.128   1.128   1.128   1.128   1.128   1.128   1.128   1.128   1.128   1.128   1.128   1.128   1.128   1.128   1.128   1.128   1.128   1.128   1.128   1.128   1.128   1.128   1.128   1.128   1.128   1.128   1.128   1.128   1.128   1.128   1.128   1.128   1.128   1.128   1.128   1.128   1.128   1.128

   Height   Standard deviation at grid points for the w component:
   180.00    0.744   0.744   0.744   0.744   0.744   0.744   0.744   0.744   0.744   0.744   0.744   0.744   0.744   0.744   0.744   0.744   0.744   0.744   0.744   0.744   0.744   0.744   0.744   0.744   0.744   0.744   0.744   0.744   0.744   0.744   0.744   0.744   0.744   0.744   0.744   0.744   0.744   0.744   0.744   0.744   0.744   0.744   0.744   0.744   0.744   0.744   0.744   0.744   0.744   0.744   0.744   0.744   0.744   0.744   0.744   0.744   0.744   0.744   0.744   0.744   0.744   0.744   0.744   0.744   0.744   0.744   0.744   0.744   0.744   0.744   0.744   0.744   0.744   0.744   0.744   0.744   0.744   0.744   0.744   0.744   0.744   0.744   0.744   0.744   0.744   0.744   0.744   0.744   0.744   0.744   0.744   0.744   0.744   0.744   0.744   0.744   0.744   0.744   0.744   0.744   0.744   0.744   0.744   0.744   0.744   0.744   0.744   0.744   0.744   0.744   0.744   0.744   0.744   0.744   0.744   0.744   0.744   0.744   0.744   0.744   0.744   0.744   0.744   0.744   0.744   0.744   0.744   0.744   0.744   0.744   0.744   0.744   0.744   0.744   0.744   0.744   0.744   0.744   0.744   0.744   0.744   0.744   0.744   0.744   0.744   0.744   0.744   0.744   0.744   0.744   0.744   0.744   0.744   0.744   0.744   0.744   0.744   0.744   0.744   0.744
   169.41    0.744   0.744   0.744   0.744   0.744   0.744   0.744   0.744   0.744   0.744   0.744   0.744   0.744   0.744   0.744   0.744   0.744   0.744   0.744   0.744   0.744   0.744   0.744   0.744   0.744   0.744   0.744   0.744   0.744   0.744   0.744   0.744   0.744   0.744   0.744   0.744   0.744   0.744   0.744   0.744   0.744   0.744   0.744   0.744   0.744   0.744   0.744   0.744   0.744   0.744   0.744   0.744   0.744   0.744   0.744   0.744   0.744   0.744   0.744   0.744   0.744   0.744   0.744   0.744   0.744   0.744   0.744   0.744   0.744   0.744   0.744   0.744   0.744   0.744   0.744   0.744   0.744   0.744   0.744   0.744   0.744   0.744   0.744   0.744   0.744   0.744   0.744   0.744   0.744   0.744   0.744   0.744   0.744   0.744   0.744   0.744   0.744   0.744   0.744   0.744   0.744   0.744   0.744   0.744   0.744   0.744   0.744   0.744   0.744   0.744   0.744   0.744   0.744   0.744   0.744   0.744   0.744   0.744   0.744   0.744   0.744   0.744   0.744   0.744   0.744   0.744   0.744   0.744   0.744   0.744   0.744   0.744   0.744   0.744   0.744   0.744   0.744   0.744   0.744   0.744   0.744   0.744   0.744   0.744   0.744   0.744   0.744   0.744   0.744   0.744   0.744   0.744   0.744   0.744   0.744   0.744   0.744   0.744   0.744   0.744
   158.82    0.744   0.744   0.744   0.744   0.744   0.744   0.744   0.744   0.744   0.744   0.744   0.744   0.744   0.744   0.744   0.744   0.744   0.744   0.744   0.744   0.744   0.744   0.744   0.744   0.744   0.744   0.744   0.744   0.744   0.744   0.744   0.744   0.744   0.744   0.744   0.744   0.744   0.744   0.744   0.744   0.744   0.744   0.744   0.744   0.744   0.744   0.744   0.744   0.744   0.744   0.744   0.744   0.744   0.744   0.744   0.744   0.744   0.744   0.744   0.744   0.744   0.744   0.744   0.744   0.744   0.744   0.744   0.744   0.744   0.744   0.744   0.744   0.744   0.744   0.744   0.744   0.744   0.744   0.744   0.744   0.744   0.744   0.744   0.744   0.744   0.744   0.744   0.744   0.744   0.744   0.744   0.744   0.744   0.744   0.744   0.744   0.744   0.744   0.744   0.744   0.744   0.744   0.744   0.744   0.744   0.744   0.744   0.744   0.744   0.744   0.744   0.744   0.744   0.744   0.744   0.744   0.744   0.744   0.744   0.744   0.744   0.744   0.744   0.744   0.744   0.744   0.744   0.744   0.744   0.744   0.744   0.744   0.744   0.744   0.744   0.744   0.744   0.744   0.744   0.744   0.744   0.744   0.744   0.744   0.744   0.744   0.744   0.744   0.744   0.744   0.744   0.744   0.744   0.744   0.744   0.744   0.744   0.744   0.744   0.744
   148.24    0.744   0.744   0.744   0.744   0.744   0.744   0.744   0.744   0.744   0.744   0.744   0.744   0.744   0.744   0.744   0.744   0.744   0.744   0.744   0.744   0.744   0.744   0.744   0.744   0.744   0.744   0.744   0.744   0.744   0.744   0.744   0.744   0.744   0.744   0.744   0.744   0.744   0.744   0.744   0.744   0.744   0.744   0.744   0.744   0.744   0.744   0.744   0.744   0.744   0.744   0.744   0.744   0.744   0.744   0.744   0.744   0.744   0.744   0.744   0.744   0.744   0.744   0.744   0.744   0.744   0.744   0.744   0.744   0.744   0.744   0.744   0.744   0.744   0.744   0.744   0.744   0.744   0.744   0.744   0.744   0.744   0.744   0.744   0.744   0.744   0.744   0.744   0.744   0.744   0.744   0.744   0.744   0.744   0.744   0.744   0.744   0.744   0.744   0.744   0.744   0.744   0.744   0.744   0.744   0.744   0.744   0.744   0.744   0.744   0.744   0.744   0.744   0.744   0.744   0.744   0.744   0.744   0.744   0.744   0.744   0.744   0.744   0.744   0.744   0.744   0.744   0.744   0.744   0.744   0.744   0.744   0.744   0.744   0.744   0.744   0.744   0.744   0.744   0.744   0.744   0.744   0.744   0.744   0.744   0.744   0.744   0.744   0.744   0.744   0.744   0.744   0.744   0.744   0.744   0.744   0.744   0.744   0.744   0.744   0.744
   137.65    0.744   0.744   0.744   0.744   0.744   0.744   0.744   0.744   0.744   0.744   0.744   0.744   0.744   0.744   0.744   0.744   0.744   0.744   0.744   0.744   0.744   0.744   0.744   0.744   0.744   0.744   0.744   0.744   0.744   0.744   0.744   0.744   0.744   0.744   0.744   0.744   0.744   0.744   0.744   0.744   0.744   0.744   0.744   0.744   0.744   0.744   0.744   0.744   0.744   0.744   0.744   0.744   0.744   0.744   0.744   0.744   0.744   0.744   0.744   0.744   0.744   0.744   0.744   0.744   0.744   0.744   0.744   0.744   0.744   0.744   0.744   0.744   0.744   0.744   0.744   0.744   0.744   0.744   0.744   0.744   0.744   0.744   0.744   0.744   0.744   0.744   0.744   0.744   0.744   0.744   0.744   0.744   0.744   0.744   0.744   0.744   0.744   0.744   0.744   0.744   0.744   0.744   0.744   0.744   0.744   0.744   0.744   0.744   0.744   0.744   0.744   0.744   0.744   0.744   0.744   0.744   0.744   0.744   0.744   0.744   0.744   0.744   0.744   0.744   0.744   0.744   0.744   0.744   0.744   0.744   0.744   0.744   0.744   0.744   0.744   0.744   0.744   0.744   0.744   0.744   0.744   0.744   0.744   0.744   0.744   0.744   0.744   0.744   0.744   0.744   0.744   0.744   0.744   0.744   0.744   0.744   0.744   0.744   0.744   0.744
   127.06    0.744   0.744   0.744   0.744   0.744   0.744   0.744   0.744   0.744   0.744   0.744   0.744   0.744   0.744   0.744   0.744   0.744   0.744   0.744   0.744   0.744   0.744   0.744   0.744   0.744   0.744   0.744   0.744   0.744   0.744   0.744   0.744   0.744   0.744   0.744   0.744   0.744   0.744   0.744   0.744   0.744   0.744   0.744   0.744   0.744   0.744   0.744   0.744   0.744   0.744   0.744   0.744   0.744   0.744   0.744   0.744   0.744   0.744   0.744   0.744   0.744   0.744   0.744   0.744   0.744   0.744   0.744   0.744   0.744   0.744   0.744   0.744   0.744   0.744   0.744   0.744   0.744   0.744   0.744   0.744   0.744   0.744   0.744   0.744   0.744   0.744   0.744   0.744   0.744   0.744   0.744   0.744   0.744   0.744   0.744   0.744   0.744   0.744   0.744   0.744   0.744   0.744   0.744   0.744   0.744   0.744   0.744   0.744   0.744   0.744   0.744   0.744   0.744   0.744   0.744   0.744   0.744   0.744   0.744   0.744   0.744   0.744   0.744   0.744   0.744   0.744   0.744   0.744   0.744   0.744   0.744   0.744   0.744   0.744   0.744   0.744   0.744   0.744   0.744   0.744   0.744   0.744   0.744   0.744   0.744   0.744   0.744   0.744   0.744   0.744   0.744   0.744   0.744   0.744   0.744   0.744   0.744   0.744   0.744   0.744
   116.47    0.744   0.744   0.744   0.744   0.744   0.744   0.744   0.744   0.744   0.744   0.744   0.744   0.744   0.744   0.744   0.744   0.744   0.744   0.744   0.744   0.744   0.744   0.744   0.744   0.744   0.744   0.744   0.744   0.744   0.744   0.744   0.744   0.744   0.744   0.744   0.744   0.744   0.744   0.744   0.744   0.744   0.744   0.744   0.744   0.744   0.744   0.744   0.744   0.744   0.744   0.744   0.744   0.744   0.744   0.744   0.744   0.744   0.744   0.744   0.744   0.744   0.744   0.744   0.744   0.744   0.744   0.744   0.744   0.744   0.744   0.744   0.744   0.744   0.744   0.744   0.744   0.744   0.744   0.744   0.744   0.744   0.744   0.744   0.744   0.744   0.744   0.744   0.744   0.744   0.744   0.744   0.744   0.744   0.744   0.744   0.744   0.744   0.744   0.744   0.744   0.744   0.744   0.744   0.744   0.744   0.744   0.744   0.744   0.744   0.744   0.744   0.744   0.744   0.744   0.744   0.744   0.744   0.744   0.744   0.744   0.744   0.744   0.744   0.744   0.744   0.744   0.744   0.744   0.744   0.744   0.744   0.744   0.744   0.744   0.744   0.744   0.744   0.744   0.744   0.744   0.744   0.744   0.744   0.744   0.744   0.744   0.744   0.744   0.744   0.744   0.744   0.744   0.744   0.744   0.744   0.744   0.744   0.744   0.744   0.744
   105.88    0.744   0.744   0.744   0.744   0.744   0.744   0.744   0.744   0.744   0.744   0.744   0.744   0.744   0.744   0.744   0.744   0.744   0.744   0.744   0.744   0.744   0.744   0.744   0.744   0.744   0.744   0.744   0.744   0.744   0.744   0.744   0.744   0.744   0.744   0.744   0.744   0.744   0.744   0.744   0.744   0.744   0.744   0.744   0.744   0.744   0.744   0.744   0.744   0.744   0.744   0.744   0.744   0.744   0.744   0.744   0.744   0.744   0.744   0.744   0.744   0.744   0.744   0.744   0.744   0.744   0.744   0.744   0.744   0.744   0.744   0.744   0.744   0.744   0.744   0.744   0.744   0.744   0.744   0.744   0.744   0.744   0.744   0.744   0.744   0.744   0.744   0.744   0.744   0.744   0.744   0.744   0.744   0.744   0.744   0.744   0.744   0.744   0.744   0.744   0.744   0.744   0.744   0.744   0.744   0.744   0.744   0.744   0.744   0.744   0.744   0.744   0.744   0.744   0.744   0.744   0.744   0.744   0.744   0.744   0.744   0.744   0.744   0.744   0.744   0.744   0.744   0.744   0.744   0.744   0.744   0.744   0.744   0.744   0.744   0.744   0.744   0.744   0.744   0.744   0.744   0.744   0.744   0.744   0.744   0.744   0.744   0.744   0.744   0.744   0.744   0.744   0.744   0.744   0.744   0.744   0.744   0.744   0.744   0.744   0.744
    95.29    0.744   0.744   0.744   0.744   0.744   0.744   0.744   0.744   0.744   0.744   0.744   0.744   0.744   0.744   0.744   0.744   0.744   0.744   0.744   0.744   0.744   0.744   0.744   0.744   0.744   0.744   0.744   0.744   0.744   0.744   0.744   0.744   0.744   0.744   0.744   0.744   0.744   0.744   0.744   0.744   0.744   0.744   0.744   0.744   0.744   0.744   0.744   0.744   0.744   0.744   0.744   0.744   0.744   0.744   0.744   0.744   0.744   0.744   0.744   0.744   0.744   0.744   0.744   0.744   0.744   0.744   0.744   0.744   0.744   0.744   0.744   0.744   0.744   0.744   0.744   0.744   0.744   0.744   0.744   0.744   0.744   0.744   0.744   0.744   0.744   0.744   0.744   0.744   0.744   0.744   0.744   0.744   0.744   0.744   0.744   0.744   0.744   0.744   0.744   0.744   0.744   0.744   0.744   0.744   0.744   0.744   0.744   0.744   0.744   0.744   0.744   0.744   0.744   0.744   0.744   0.744   0.744   0.744   0.744   0.744   0.744   0.744   0.744   0.744   0.744   0.744   0.744   0.744   0.744   0.744   0.744   0.744   0.744   0.744   0.744   0.744   0.744   0.744   0.744   0.744   0.744   0.744   0.744   0.744   0.744   0.744   0.744   0.744   0.744   0.744   0.744   0.744   0.744   0.744   0.744   0.744   0.744   0.744   0.744   0.744
    84.71    0.744   0.744   0.744   0.744   0.744   0.744   0.744   0.744   0.744   0.744   0.744   0.744   0.744   0.744   0.744   0.744   0.744   0.744   0.744   0.744   0.744   0.744   0.744   0.744   0.744   0.744   0.744   0.744   0.744   0.744   0.744   0.744   0.744   0.744   0.744   0.744   0.744   0.744   0.744   0.744   0.744   0.744   0.744   0.744   0.744   0.744   0.744   0.744   0.744   0.744   0.744   0.744   0.744   0.744   0.744   0.744   0.744   0.744   0.744   0.744   0.744   0.744   0.744   0.744   0.744   0.744   0.744   0.744   0.744   0.744   0.744   0.744   0.744   0.744   0.744   0.744   0.744   0.744   0.744   0.744   0.744   0.744   0.744   0.744   0.744   0.744   0.744   0.744   0.744   0.744   0.744   0.744   0.744   0.744   0.744   0.744   0.744   0.744   0.744   0.744   0.744   0.744   0.744   0.744   0.744   0.744   0.744   0.744   0.744   0.744   0.744   0.744   0.744   0.744   0.744   0.744   0.744   0.744   0.744   0.744   0.744   0.744   0.744   0.744   0.744   0.744   0.744   0.744   0.744   0.744   0.744   0.744   0.744   0.744   0.744   0.744   0.744   0.744   0.744   0.744   0.744   0.744   0.744   0.744   0.744   0.744   0.744   0.744   0.744   0.744   0.744   0.744   0.744   0.744   0.744   0.744   0.744   0.744   0.744   0.744
    74.12    0.744   0.744   0.744   0.744   0.744   0.744   0.744   0.744   0.744   0.744   0.744   0.744   0.744   0.744   0.744   0.744   0.744   0.744   0.744   0.744   0.744   0.744   0.744   0.744   0.744   0.744   0.744   0.744   0.744   0.744   0.744   0.744   0.744   0.744   0.744   0.744   0.744   0.744   0.744   0.744   0.744   0.744   0.744   0.744   0.744   0.744   0.744   0.744   0.744   0.744   0.744   0.744   0.744   0.744   0.744   0.744   0.744   0.744   0.744   0.744   0.744   0.744   0.744   0.744   0.744   0.744   0.744   0.744   0.744   0.744   0.744   0.744   0.744   0.744   0.744   0.744   0.744   0.744   0.744   0.744   0.744   0.744   0.744   0.744   0.744   0.744   0.744   0.744   0.744   0.744   0.744   0.744   0.744   0.744   0.744   0.744   0.744   0.744   0.744   0.744   0.744   0.744   0.744   0.744   0.744   0.744   0.744   0.744   0.744   0.744   0.744   0.744   0.744   0.744   0.744   0.744   0.744   0.744   0.744   0.744   0.744   0.744   0.744   0.744   0.744   0.744   0.744   0.744   0.744   0.744   0.744   0.744   0.744   0.744   0.744   0.744   0.744   0.744   0.744   0.744   0.744   0.744   0.744   0.744   0.744   0.744   0.744   0.744   0.744   0.744   0.744   0.744   0.744   0.744   0.744   0.744   0.744   0.744   0.744   0.744
    63.53    0.744   0.744   0.744   0.744   0.744   0.744   0.744   0.744   0.744   0.744   0.744   0.744   0.744   0.744   0.744   0.744   0.744   0.744   0.744   0.744   0.744   0.744   0.744   0.744   0.744   0.744   0.744   0.744   0.744   0.744   0.744   0.744   0.744   0.744   0.744   0.744   0.744   0.744   0.744   0.744   0.744   0.744   0.744   0.744   0.744   0.744   0.744   0.744   0.744   0.744   0.744   0.744   0.744   0.744   0.744   0.744   0.744   0.744   0.744   0.744   0.744   0.744   0.744   0.744   0.744   0.744   0.744   0.744   0.744   0.744   0.744   0.744   0.744   0.744   0.744   0.744   0.744   0.744   0.744   0.744   0.744   0.744   0.744   0.744   0.744   0.744   0.744   0.744   0.744   0.744   0.744   0.744   0.744   0.744   0.744   0.744   0.744   0.744   0.744   0.744   0.744   0.744   0.744   0.744   0.744   0.744   0.744   0.744   0.744   0.744   0.744   0.744   0.744   0.744   0.744   0.744   0.744   0.744   0.744   0.744   0.744   0.744   0.744   0.744   0.744   0.744   0.744   0.744   0.744   0.744   0.744   0.744   0.744   0.744   0.744   0.744   0.744   0.744   0.744   0.744   0.744   0.744   0.744   0.744   0.744   0.744   0.744   0.744   0.744   0.744   0.744   0.744   0.744   0.744   0.744   0.744   0.744   0.744   0.744   0.744
    52.94    0.744   0.744   0.744   0.744   0.744   0.744   0.744   0.744   0.744   0.744   0.744   0.744   0.744   0.744   0.744   0.744   0.744   0.744   0.744   0.744   0.744   0.744   0.744   0.744   0.744   0.744   0.744   0.744   0.744   0.744   0.744   0.744   0.744   0.744   0.744   0.744   0.744   0.744   0.744   0.744   0.744   0.744   0.744   0.744   0.744   0.744   0.744   0.744   0.744   0.744   0.744   0.744   0.744   0.744   0.744   0.744   0.744   0.744   0.744   0.744   0.744   0.744   0.744   0.744   0.744   0.744   0.744   0.744   0.744   0.744   0.744   0.744   0.744   0.744   0.744   0.744   0.744   0.744   0.744   0.744   0.744   0.744   0.744   0.744   0.744   0.744   0.744   0.744   0.744   0.744   0.744   0.744   0.744   0.744   0.744   0.744   0.744   0.744   0.744   0.744   0.744   0.744   0.744   0.744   0.744   0.744   0.744   0.744   0.744   0.744   0.744   0.744   0.744   0.744   0.744   0.744   0.744   0.744   0.744   0.744   0.744   0.744   0.744   0.744   0.744   0.744   0.744   0.744   0.744   0.744   0.744   0.744   0.744   0.744   0.744   0.744   0.744   0.744   0.744   0.744   0.744   0.744   0.744   0.744   0.744   0.744   0.744   0.744   0.744   0.744   0.744   0.744   0.744   0.744   0.744   0.744   0.744   0.744   0.744   0.744
    42.35    0.744   0.744   0.744   0.744   0.744   0.744   0.744   0.744   0.744   0.744   0.744   0.744   0.744   0.744   0.744   0.744   0.744   0.744   0.744   0.744   0.744   0.744   0.744   0.744   0.744   0.744   0.744   0.744   0.744   0.744   0.744   0.744   0.744   0.744   0.744   0.744   0.744   0.744   0.744   0.744   0.744   0.744   0.744   0.744   0.744   0.744   0.744   0.744   0.744   0.744   0.744   0.744   0.744   0.744   0.744   0.744   0.744   0.744   0.744   0.744   0.744   0.744   0.744   0.744   0.744   0.744   0.744   0.744   0.744   0.744   0.744   0.744   0.744   0.744   0.744   0.744   0.744   0.744   0.744   0.744   0.744   0.744   0.744   0.744   0.744   0.744   0.744   0.744   0.744   0.744   0.744   0.744   0.744   0.744   0.744   0.744   0.744   0.744   0.744   0.744   0.744   0.744   0.744   0.744   0.744   0.744   0.744   0.744   0.744   0.744   0.744   0.744   0.744   0.744   0.744   0.744   0.744   0.744   0.744   0.744   0.744   0.744   0.744   0.744   0.744   0.744   0.744   0.744   0.744   0.744   0.744   0.744   0.744   0.744   0.744   0.744   0.744   0.744   0.744   0.744   0.744   0.744   0.744   0.744   0.744   0.744   0.744   0.744   0.744   0.744   0.744   0.744   0.744   0.744   0.744   0.744   0.744   0.744   0.744   0.744
    31.76    0.744   0.744   0.744   0.744   0.744   0.744   0.744   0.744   0.744   0.744   0.744   0.744   0.744   0.744   0.744   0.744   0.744   0.744   0.744   0.744   0.744   0.744   0.744   0.744   0.744   0.744   0.744   0.744   0.744   0.744   0.744   0.744   0.744   0.744   0.744   0.744   0.744   0.744   0.744   0.744   0.744   0.744   0.744   0.744   0.744   0.744   0.744   0.744   0.744   0.744   0.744   0.744   0.744   0.744   0.744   0.744   0.744   0.744   0.744   0.744   0.744   0.744   0.744   0.744   0.744   0.744   0.744   0.744   0.744   0.744   0.744   0.744   0.744   0.744   0.744   0.744   0.744   0.744   0.744   0.744   0.744   0.744   0.744   0.744   0.744   0.744   0.744   0.744   0.744   0.744   0.744   0.744   0.744   0.744   0.744   0.744   0.744   0.744   0.744   0.744   0.744   0.744   0.744   0.744   0.744   0.744   0.744   0.744   0.744   0.744   0.744   0.744   0.744   0.744   0.744   0.744   0.744   0.744   0.744   0.744   0.744   0.744   0.744   0.744   0.744   0.744   0.744   0.744   0.744   0.744   0.744   0.744   0.744   0.744   0.744   0.744   0.744   0.744   0.744   0.744   0.744   0.744   0.744   0.744   0.744   0.744   0.744   0.744   0.744   0.744   0.744   0.744   0.744   0.744   0.744   0.744   0.744   0.744   0.744   0.744
    21.18    0.744   0.744   0.744   0.744   0.744   0.744   0.744   0.744   0.744   0.744   0.744   0.744   0.744   0.744   0.744   0.744   0.744   0.744   0.744   0.744   0.744   0.744   0.744   0.744   0.744   0.744   0.744   0.744   0.744   0.744   0.744   0.744   0.744   0.744   0.744   0.744   0.744   0.744   0.744   0.744   0.744   0.744   0.744   0.744   0.744   0.744   0.744   0.744   0.744   0.744   0.744   0.744   0.744   0.744   0.744   0.744   0.744   0.744   0.744   0.744   0.744   0.744   0.744   0.744   0.744   0.744   0.744   0.744   0.744   0.744   0.744   0.744   0.744   0.744   0.744   0.744   0.744   0.744   0.744   0.744   0.744   0.744   0.744   0.744   0.744   0.744   0.744   0.744   0.744   0.744   0.744   0.744   0.744   0.744   0.744   0.744   0.744   0.744   0.744   0.744   0.744   0.744   0.744   0.744   0.744   0.744   0.744   0.744   0.744   0.744   0.744   0.744   0.744   0.744   0.744   0.744   0.744   0.744   0.744   0.744   0.744   0.744   0.744   0.744   0.744   0.744   0.744   0.744   0.744   0.744   0.744   0.744   0.744   0.744   0.744   0.744   0.744   0.744   0.744   0.744   0.744   0.744   0.744   0.744   0.744   0.744   0.744   0.744   0.744   0.744   0.744   0.744   0.744   0.744   0.744   0.744   0.744   0.744   0.744   0.744
    10.59    0.744   0.744   0.744   0.744   0.744   0.744   0.744   0.744   0.744   0.744   0.744   0.744   0.744   0.744   0.744   0.744   0.744   0.744   0.744   0.744   0.744   0.744   0.744   0.744   0.744   0.744   0.744   0.744   0.744   0.744   0.744   0.744   0.744   0.744   0.744   0.744   0.744   0.744   0.744   0.744   0.744   0.744   0.744   0.744   0.744   0.744   0.744   0.744   0.744   0.744   0.744   0.744   0.744   0.744   0.744   0.744   0.744   0.744   0.744   0.744   0.744   0.744   0.744   0.744   0.744   0.744   0.744   0.744   0.744   0.744   0.744   0.744   0.744   0.744   0.744   0.744   0.744   0.744   0.744   0.744   0.744   0.744   0.744   0.744   0.744   0.744   0.744   0.744   0.744   0.744   0.744   0.744   0.744   0.744   0.744   0.744   0.744   0.744   0.744   0.744   0.744   0.744   0.744   0.744   0.744   0.744   0.744   0.744   0.744   0.744   0.744   0.744   0.744   0.744   0.744   0.744   0.744   0.744   0.744   0.744   0.744   0.744   0.744   0.744   0.744   0.744   0.744   0.744   0.744   0.744   0.744   0.744   0.744   0.744   0.744   0.744   0.744   0.744   0.744   0.744   0.744   0.744   0.744   0.744   0.744   0.744   0.744   0.744   0.744   0.744   0.744   0.744   0.744   0.744   0.744   0.744   0.744   0.744   0.744   0.744
     0.00    0.744   0.744   0.744   0.744   0.744   0.744   0.744   0.744   0.744   0.744   0.744   0.744   0.744   0.744   0.744   0.744   0.744   0.744   0.744   0.744   0.744   0.744   0.744   0.744   0.744   0.744   0.744   0.744   0.744   0.744   0.744   0.744   0.744   0.744   0.744   0.744   0.744   0.744   0.744   0.744   0.744   0.744   0.744   0.744   0.744   0.744   0.744   0.744   0.744   0.744   0.744   0.744   0.744   0.744   0.744   0.744   0.744   0.744   0.744   0.744   0.744   0.744   0.744   0.744   0.744   0.744   0.744   0.744   0.744   0.744   0.744   0.744   0.744   0.744   0.744   0.744   0.744   0.744   0.744   0.744   0.744   0.744   0.744   0.744   0.744   0.744   0.744   0.744   0.744   0.744   0.744   0.744   0.744   0.744   0.744   0.744   0.744   0.744   0.744   0.744   0.744   0.744   0.744   0.744   0.744   0.744   0.744   0.744   0.744   0.744   0.744   0.744   0.744   0.744   0.744   0.744   0.744   0.744   0.744   0.744   0.744   0.744   0.744   0.744   0.744   0.744   0.744   0.744   0.744   0.744   0.744   0.744   0.744   0.744   0.744   0.744   0.744   0.744   0.744   0.744   0.744   0.744   0.744   0.744   0.744   0.744   0.744   0.744   0.744   0.744   0.744   0.744   0.744   0.744   0.744   0.744   0.744   0.744   0.744   0.744

   Mean standard deviation across all grid points:
      u component:    1.135 m/s
      v component:    1.128 m/s
      w component:    0.744 m/s


U-component (X) statistics from the interpolated hub point:

   Mean =   6.9300 m/s
   TI   =  18.1882 %


Processing complete.  9.8281 CPU seconds used.
