
This summary file was generated by TurbSim (from OpenFAST-v4.1.2) on 24-Feb-2026 at 14:45:33.


Runtime Options:

 165233383  Random seed #1
    RANLUX  Type of random number generator
         F  Output binary HH turbulence parameters?
         F  Output formatted turbulence parameters?
         F  Output AeroDyn HH files?
         T  Output AeroDyn FF files?
         F  Output BLADED FF files?
         F  Output tower data?
         F  Output HAWC FF files?
         T  Output formatted FF files?
         F  Output coherent turbulence time step file?
 0 -  NONE  IEC turbulence models scaled to exact specified standard deviation


Turbine/Model Specifications:

        30  Vertical grid-point matrix dimension
       200  Horizontal grid-point matrix dimension
     1.000  Time step [seconds]
    90.000  Analysis time [seconds]
    90.000  Usable output time [seconds]
   150.000  Hub height [m]
   300.000  Grid height [m]
  2000.000  Grid width [m]
     0.000  Vertical flow angle [degrees]
     8.000  Horizontal flow angle [degrees]


Meteorological Boundary Conditions:

    IECKAI  IEC Kaimal spectral model
         1  IEC standard: IEC 61400-1 Ed. 3: 2005
         A  IEC turbulence characteristic
       NTM  IEC Normal Turbulence Model
       N/A  IEC Extreme Turbulence Model (ETM) "c" parameter [m/s]
       PL   Wind profile type
    90.000  Reference height [m]
     7.000  Reference wind speed [m/s]
       N/A  Jet height [m]
     0.200  Power law exponent
     0.030  Surface roughness length [m]


Non-IEC Meteorological Boundary Conditions:

       N/A  Site latitude [degrees]
       N/A  Gradient Richardson number
       N/A  Friction or shear velocity [m/s]
       N/A  Mixing layer depth [m]
       N/A  Mean hub u'w' Reynolds stress
       N/A  Mean hub u'v' Reynolds stress
       N/A  Mean hub v'w' Reynolds stress


Spatial Coherence Models:

       IEC  u-component coherence model
      NONE  v-component coherence model
      NONE  w-component coherence model
(   12.000, 0.353E-03)  u-component coherence parameters
                   N/A  v-component coherence parameters
                   N/A  w-component coherence parameters
       N/A  Coherence exponent


You have requested that the following file(s) be generated:

   Generator_Ambient/TurbSim1.bts (AeroDyn/TurbSim full-field wind file)
   Generator_Ambient/TurbSim1.u (formatted full-field U-component file)
   Generator_Ambient/TurbSim1.v (formatted full-field V-component file)
   Generator_Ambient/TurbSim1.w (formatted full-field W-component file)


Turbulence Simulation Scaling Parameter Summary:

   Turbulence model used                            =  IEC Kaimal
   Turbulence characteristic                        =  A
   IEC turbulence type                              =  Normal Turbulence Model
   IEC standard                                     =  IEC 61400-1 Ed. 3: 2005
   Mean wind speed at hub height                    =    7.753 m/s
   Expected value of turbulence intensity at 15 m/s =   16.000%
   Characteristic value of standard deviation       =    1.826 m/s
   Turbulence scale                                 =   42.000 m
   u-component integral scale                       =  340.200 m
   Coherency scale                                  =  340.200 m
   Characteristic value of hub turbulence intensity =   23.557%
   Gradient Richardson number                       =    0.000

   Wind profile type                                =  Power law
   Power law exponent                               =    0.200
   Mean shear across rotor disk                     =    0.030 (m/s)/m
   Assumed rotor diameter                           =  300.000 m
   Surface roughness length                         =    0.030 m

   Nyquist frequency of turbulent wind field        =    0.500 Hz

   Number of time steps in the FFT                  =       90
   Number of time steps output                      =       90
   Number of points simulated                       =     6001


Mean Flow Angles:

   Vertical   =   0.0 degrees
   Horizontal =   8.0 degrees

Mean Wind Speed Profile:

   Height    Wind Speed   Horizontal Angle  Vertical Angle  U-comp (X)   V-comp (Y)   W-comp (Z)
     (m)        (m/s)         (degrees)       (degrees)       (m/s)        (m/s)        (m/s)   
   ------    ----------   ----------------  --------------  ----------   ----------   ----------
    300.0        8.91            8.00            0.00          8.82         1.24         0.00
    289.7        8.84            8.00            0.00          8.76         1.23         0.00
    279.3        8.78            8.00            0.00          8.69         1.22         0.00
    269.0        8.71            8.00            0.00          8.63         1.21         0.00
    258.6        8.65            8.00            0.00          8.56         1.20         0.00
    248.3        8.58            8.00            0.00          8.49         1.19         0.00
    237.9        8.50            8.00            0.00          8.42         1.18         0.00
    227.6        8.43            8.00            0.00          8.35         1.17         0.00
    217.2        8.35            8.00            0.00          8.27         1.16         0.00
    206.9        8.27            8.00            0.00          8.19         1.15         0.00
    196.6        8.18            8.00            0.00          8.10         1.14         0.00
    186.2        8.10            8.00            0.00          8.02         1.13         0.00
    175.9        8.00            8.00            0.00          7.93         1.11         0.00
    165.5        7.91            8.00            0.00          7.83         1.10         0.00
    155.2        7.81            8.00            0.00          7.73         1.09         0.00
    150.0        7.75            8.00            0.00          7.68         1.08         0.00
    144.8        7.70            8.00            0.00          7.62         1.07         0.00
    134.5        7.59            8.00            0.00          7.51         1.06         0.00
    124.1        7.47            8.00            0.00          7.39         1.04         0.00
    113.8        7.34            8.00            0.00          7.26         1.02         0.00
    103.4        7.20            8.00            0.00          7.13         1.00         0.00
     93.1        7.05            8.00            0.00          6.98         0.98         0.00
     82.8        6.88            8.00            0.00          6.82         0.96         0.00
     72.4        6.70            8.00            0.00          6.64         0.93         0.00
     62.1        6.50            8.00            0.00          6.44         0.90         0.00
     51.7        6.27            8.00            0.00          6.20         0.87         0.00
     41.4        5.99            8.00            0.00          5.93         0.83         0.00
     31.0        5.66            8.00            0.00          5.60         0.79         0.00
     20.7        5.22            8.00            0.00          5.17         0.73         0.00
     10.3        4.54            8.00            0.00          4.50         0.63         0.00
      0.0        0.45            8.00            0.00          0.45         0.06         0.00


Harvested Random Seeds after Generation of the Random Numbers:

      7527380 K 1
            0 K 2


Hub-Height Simulated Turbulence Statistical Summary:

   Type of Wind        Min (m/s)   Mean (m/s)    Max (m/s)  Sigma (m/s)       TI (%)
   ----------------    ---------   ----------    ---------  -----------       ------
   Longitudinal (u)         3.85         7.75        11.11        1.763       22.734
   Lateral (v)             -3.05        -0.00         2.83        1.199       15.470
   Vertical (w)            -1.73        -0.00         1.64        0.781       10.068
   U component              3.67         7.68        11.03        1.713       22.305
   V component             -1.98         1.08         4.28        1.270       16.540
   W component             -1.73        -0.00         1.64        0.781       10.167
   Horizontal (U&V)         3.98         7.84        11.11        1.772       22.598
   Total                    4.14         7.89        11.13        1.747       22.152

                       Min Reynolds     Mean Reynolds    Max Reynolds    Correlation
   Product             Stress (m/s)^2   Stress (m/s)^2   Stress (m/s)^2  Coefficient
   ----------------    --------------   --------------   --------------  -----------
   u'w'                     -5.670            -0.387             3.318        -0.282
   u'v'                     -4.474             0.514             8.075         0.243
   v'w'                     -4.882            -0.286             1.309        -0.305


   Friction Velocity (Ustar)  =      0.622 m/s
   Maximum Instantaneous TKE  =      8.794 (m/s)^2
   Maximum Instantaneous CTKE =      4.041 (m/s)^2


Grid Point Variance Summary:

   Y-coord-1000.00 -989.95 -979.90 -969.85 -959.80 -949.75 -939.70 -929.65 -919.60 -909.55 -899.50 -889.45 -879.40 -869.35 -859.30 -849.25 -839.20 -829.15 -819.10 -809.05 -798.99 -788.94 -778.89 -768.84 -758.79 -748.74 -738.69 -728.64 -718.59 -708.54 -698.49 -688.44 -678.39 -668.34 -658.29 -648.24 -638.19 -628.14 -618.09 -608.04 -597.99 -587.94 -577.89 -567.84 -557.79 -547.74 -537.69 -527.64 -517.59 -507.54 -497.49 -487.44 -477.39 -467.34 -457.29 -447.24 -437.19 -427.14 -417.09 -407.04 -396.98 -386.93 -376.88 -366.83 -356.78 -346.73 -336.68 -326.63 -316.58 -306.53 -296.48 -286.43 -276.38 -266.33 -256.28 -246.23 -236.18 -226.13 -216.08 -206.03 -195.98 -185.93 -175.88 -165.83 -155.78 -145.73 -135.68 -125.63 -115.58 -105.53  -95.48  -85.43  -75.38  -65.33  -55.28  -45.23  -35.18  -25.13  -15.08   -5.03    5.03   15.08   25.13   35.18   45.23   55.28   65.33   75.38   85.43   95.48  105.53  115.58  125.63  135.68  145.73  155.78  165.83  175.88  185.93  195.98  206.03  216.08  226.13  236.18  246.23  256.28  266.33  276.38  286.43  296.48  306.53  316.58  326.63  336.68  346.73  356.78  366.83  376.88  386.93  396.98  407.04  417.09  427.14  437.19  447.24  457.29  467.34  477.39  487.44  497.49  507.54  517.59  527.64  537.69  547.74  557.79  567.84  577.89  587.94  597.99  608.04  618.09  628.14  638.19  648.24  658.29  668.34  678.39  688.44  698.49  708.54  718.59  728.64  738.69  748.74  758.79  768.84  778.89  788.94  798.99  809.05  819.10  829.15  839.20  849.25  859.30  869.35  879.40  889.45  899.50  909.55  919.60  929.65  939.70  949.75  959.80  969.85  979.90  989.95 1000.00

   Height   Standard deviation at grid points for the u component:
   300.00    0.902   0.919   1.129   1.023   0.912   0.981   1.046   1.355   1.375   1.054   1.413   1.387   1.049   1.168   1.025   1.045   1.246   1.379   0.946   1.187   1.095   0.914   0.844   0.961   1.311   1.121   1.262   1.187   1.474   1.424   1.362   1.278   1.176   1.031   1.290   0.982   1.200   0.975   0.856   0.846   1.050   1.099   1.299   1.234   1.035   0.870   0.938   1.153   1.008   1.126   0.844   0.863   1.008   0.874   0.861   1.072   1.003   1.085   1.071   0.983   0.911   0.884   0.815   1.208   1.338   1.593   1.476   1.178   1.489   1.440   1.653   1.736   1.223   0.918   1.204   1.244   1.119   1.133   1.119   1.241   1.118   1.149   1.251   1.486   1.637   1.363   1.441   1.250   1.121   1.051   1.061   1.372   1.213   1.341   1.614   1.349   1.068   1.207   0.907   0.869   0.998   1.123   1.122   0.885   1.051   0.853   0.939   1.178   1.070   1.041   1.445   1.449   1.826   1.317   1.402   1.008   1.009   1.158   1.139   0.994   1.456   1.511   1.273   1.371   1.291   1.269   1.231   1.189   1.202   1.397   1.222   0.927   1.234   1.471   1.413   1.345   1.062   1.570   1.596   1.345   1.495   1.423   1.091   1.360   0.991   1.380   1.512   1.029   0.874   1.171   1.360   1.413   1.067   1.455   1.313   1.397   1.606   1.629   1.432   1.477   1.125   0.935   1.037   1.192   1.024   1.130   1.190   1.168   1.038   1.062   1.241   1.321   0.818   1.193   1.347   1.234   1.431   0.981   1.244   1.120   0.815   0.827   0.792   1.141   1.054   0.985   1.202   1.063   1.190   1.212   1.015   0.972   1.107   0.828   1.183   1.448   1.252   0.927   1.235   1.539
   289.66    1.322   1.062   1.175   1.173   0.715   1.038   1.156   1.150   1.334   1.170   1.383   1.158   1.289   1.334   1.231   0.733   0.956   1.224   1.123   1.381   1.458   1.065   0.824   1.015   1.268   1.243   1.285   1.227   1.375   1.227   1.245   1.199   1.201   0.993   0.995   1.126   1.089   1.220   0.954   0.926   0.824   0.850   0.948   1.094   0.848   0.956   0.856   0.841   0.753   0.917   1.116   1.263   1.029   0.914   0.787   1.019   1.242   0.976   1.150   0.873   0.923   0.996   1.087   1.320   1.532   1.292   1.132   1.096   1.383   1.496   1.486   1.474   1.025   1.314   1.422   1.140   1.263   1.343   1.157   1.128   1.055   0.849   1.141   1.276   1.371   1.049   1.012   1.083   1.012   1.045   0.912   1.320   1.352   1.169   1.494   1.576   1.338   1.200   1.227   1.241   1.255   1.097   0.870   0.852   0.774   0.766   1.039   1.091   1.056   1.092   1.209   1.449   1.621   1.382   1.338   1.143   0.998   1.061   1.134   1.422   1.409   1.185   1.105   1.028   1.028   1.218   1.030   0.844   1.036   1.311   0.937   0.995   0.961   1.464   1.028   1.217   1.526   1.679   1.540   1.512   1.298   1.065   1.173   1.231   0.972   1.294   1.347   1.404   1.020   0.940   1.117   1.607   1.558   1.190   1.548   1.492   1.447   1.270   1.260   1.328   1.071   1.342   1.183   1.331   1.106   0.857   0.972   0.892   0.912   0.902   1.180   0.927   0.948   1.093   1.170   1.468   1.457   1.017   0.969   1.205   0.945   0.879   1.133   1.251   1.110   1.085   1.100   1.305   1.102   0.954   1.134   1.149   0.925   1.103   1.216   1.435   1.110   1.191   1.068   1.356
   279.31    1.168   1.357   1.155   0.908   1.177   1.208   1.162   1.090   1.288   1.124   1.049   1.299   1.495   1.084   1.097   0.944   0.948   1.052   1.306   1.124   1.219   1.119   1.196   1.356   1.171   1.372   1.312   1.005   1.277   1.279   1.215   1.135   1.014   1.173   1.174   1.144   1.359   1.236   1.049   1.130   1.187   1.298   1.110   0.847   1.009   1.246   1.092   0.935   0.939   1.111   1.335   1.255   1.227   0.932   1.357   1.034   1.280   1.084   1.257   1.230   1.230   1.206   1.316   1.438   1.349   1.502   1.382   1.166   1.221   1.376   1.016   1.080   1.294   1.431   0.888   1.064   1.014   1.141   1.047   1.242   0.977   1.063   1.104   0.832   1.068   1.057   1.213   1.102   0.995   1.042   1.173   1.051   1.390   1.515   1.255   1.309   1.178   1.209   1.192   1.416   1.040   0.999   0.908   1.116   1.000   0.862   0.926   0.919   0.790   1.091   0.966   1.220   1.421   1.460   1.246   0.825   1.050   1.042   1.004   1.191   0.972   1.264   1.101   1.184   0.869   1.153   0.877   0.990   0.885   1.116   0.961   1.053   1.419   1.519   1.156   1.246   1.427   1.513   1.332   1.124   1.323   1.080   1.171   1.362   1.295   0.988   1.376   1.387   0.991   0.908   1.417   1.493   1.819   1.257   1.376   1.294   1.463   1.367   1.010   1.045   1.171   1.315   1.849   1.486   1.078   1.194   1.198   1.456   1.255   1.215   1.215   0.916   0.929   1.175   0.958   1.278   1.476   1.465   0.994   0.845   0.967   1.164   1.214   1.149   1.004   1.047   1.110   1.190   1.238   1.280   1.200   1.297   1.232   1.199   1.391   1.126   1.066   0.965   0.979   1.189
   268.97    1.244   1.157   1.182   0.929   1.148   1.216   1.332   1.286   1.022   0.887   0.961   1.039   1.023   1.280   1.138   1.354   0.981   0.710   1.077   1.249   1.194   0.733   1.250   1.631   1.346   1.175   1.206   1.493   1.369   1.018   1.156   1.181   1.170   1.140   1.171   1.140   1.358   1.060   1.098   1.165   1.143   1.329   1.356   1.117   1.114   1.352   0.880   0.953   1.096   1.007   1.281   0.986   1.005   0.978   1.123   1.358   1.151   1.221   1.398   1.119   1.005   0.986   1.159   0.995   1.215   1.229   1.204   1.159   1.139   1.081   1.189   0.770   0.953   1.076   0.956   1.293   1.022   1.154   1.353   0.891   1.238   1.091   0.885   0.892   0.985   0.943   0.932   1.118   0.851   0.905   1.275   0.987   1.463   1.434   1.225   1.456   1.116   1.126   1.464   1.450   1.410   1.139   1.118   0.848   1.167   1.298   1.061   0.985   0.926   1.043   1.188   1.209   1.155   1.190   0.853   0.790   1.081   0.918   0.999   1.146   0.949   0.986   1.040   1.027   0.888   0.857   1.300   1.211   1.031   1.095   1.161   1.325   1.220   1.196   1.284   1.106   1.021   1.010   1.069   1.447   1.565   1.561   1.262   1.225   1.168   1.074   1.234   1.238   1.122   1.262   1.436   1.539   1.870   1.707   1.459   1.393   1.195   0.963   1.287   1.252   1.482   1.591   1.727   1.525   1.068   1.151   1.219   1.234   1.287   1.453   1.503   1.255   1.004   1.153   0.999   0.992   1.333   1.200   1.083   0.907   1.013   1.178   1.288   1.307   1.174   0.982   1.056   1.300   1.353   1.313   1.377   1.259   1.062   1.394   1.409   0.949   0.809   1.017   0.875   1.254
   258.62    1.072   1.237   1.081   1.037   0.970   1.209   1.068   0.954   0.826   1.038   0.999   1.080   1.095   1.204   0.997   1.070   1.048   0.940   0.972   0.883   0.978   1.115   1.282   1.388   1.362   1.217   1.760   1.707   1.639   1.363   1.094   0.934   1.005   1.288   1.101   1.219   1.361   1.240   1.310   1.024   0.961   1.175   1.281   1.148   1.250   1.352   0.962   1.203   1.182   1.435   1.324   1.028   1.125   0.892   1.201   1.333   1.100   1.375   1.671   1.439   1.225   0.841   1.191   0.905   1.331   1.244   0.855   0.959   0.991   0.962   0.975   1.049   0.849   0.799   0.898   1.177   1.120   1.134   1.379   1.245   1.087   1.201   0.818   0.898   1.098   0.905   1.119   0.828   0.962   1.124   1.044   1.309   1.250   1.509   1.672   1.471   1.524   1.506   1.339   1.647   1.277   1.270   0.899   1.257   1.207   1.143   1.062   0.981   0.977   1.028   1.072   0.817   0.980   1.093   0.907   1.165   0.901   1.024   1.267   1.498   1.213   0.849   0.741   1.020   1.248   1.214   1.381   0.967   0.940   1.034   1.187   1.148   1.253   1.028   1.179   1.077   1.254   1.124   1.178   1.340   1.186   1.312   1.318   1.096   1.195   1.663   1.568   1.185   1.209   1.425   1.363   1.887   1.840   1.748   1.775   1.286   1.228   1.125   1.249   1.306   1.437   1.832   1.256   1.367   1.130   1.275   1.598   1.160   1.097   1.065   1.281   1.194   1.091   1.024   1.002   1.092   1.201   0.940   0.904   0.888   1.136   1.218   1.302   1.184   1.078   1.190   1.130   1.137   1.322   1.521   1.442   1.259   1.457   1.261   1.240   1.033   1.104   0.936   1.073   1.282
   248.28    1.528   1.390   1.099   1.031   1.113   1.035   1.022   1.132   1.155   0.793   1.163   0.997   1.118   1.199   0.975   0.902   0.885   0.958   0.972   0.873   0.789   0.836   1.115   1.092   1.277   1.368   1.732   1.895   1.840   1.116   0.977   1.267   1.167   1.354   1.342   1.016   1.099   1.158   0.865   1.205   1.160   1.268   1.280   1.070   1.150   1.479   1.034   1.572   1.652   1.596   1.329   1.211   1.122   1.308   1.287   1.390   1.367   1.214   1.630   1.427   1.669   1.257   1.000   1.140   1.041   1.302   0.995   0.990   1.177   0.977   1.272   1.003   1.170   0.952   1.087   1.227   1.535   1.490   1.120   1.100   0.942   0.965   0.931   1.073   0.994   1.079   0.902   1.008   0.715   1.135   1.082   1.024   1.126   1.304   1.300   1.662   1.441   1.825   1.913   1.601   1.703   1.159   1.041   1.229   1.221   1.082   1.076   1.208   1.050   1.262   1.085   1.013   1.143   1.232   1.403   1.114   1.173   1.055   1.202   1.376   1.222   0.994   0.931   1.016   1.018   1.008   0.931   1.051   0.919   1.071   0.971   1.092   1.300   1.386   1.166   1.165   1.340   1.277   1.448   1.215   0.902   1.218   1.642   1.540   1.562   1.734   1.757   1.064   1.004   1.204   1.624   1.824   1.921   1.689   1.532   1.119   1.299   1.085   1.244   1.186   1.004   1.399   1.436   1.297   1.036   1.446   1.652   1.241   1.224   1.340   1.202   1.227   1.111   1.091   1.112   1.415   1.009   1.227   1.016   1.376   1.309   1.239   1.141   1.201   1.530   1.416   1.274   0.873   0.876   1.124   1.307   1.170   1.462   1.451   1.404   0.916   1.026   0.909   0.935   1.179
   237.93    1.585   1.025   1.241   1.066   0.953   1.058   0.950   0.819   1.091   0.927   0.842   1.108   1.383   1.598   1.118   1.251   0.934   0.720   0.828   0.991   0.940   1.209   0.986   1.050   1.171   1.314   1.477   1.635   1.287   1.192   1.303   1.362   1.379   1.334   1.213   0.921   1.034   1.178   1.222   1.410   1.499   1.223   1.095   1.201   1.216   1.344   1.150   1.514   1.599   1.601   1.293   1.211   1.335   1.444   1.281   1.492   1.362   1.298   1.333   1.618   1.776   1.464   1.442   1.150   0.985   0.941   1.260   1.407   1.032   1.154   1.045   1.263   1.104   1.295   0.895   1.286   1.225   1.241   0.814   0.887   0.822   1.072   0.953   1.119   0.851   0.916   0.935   0.779   0.891   1.019   1.116   1.086   0.858   1.222   1.523   1.328   1.543   1.765   1.586   1.909   1.769   1.375   1.304   1.044   1.291   1.187   1.199   1.139   1.158   0.984   1.339   1.529   1.074   1.034   1.230   1.526   1.157   1.439   1.523   1.533   0.987   0.968   0.896   0.921   1.020   0.890   1.062   1.162   0.913   0.878   0.913   1.061   1.133   1.139   0.956   1.102   1.378   1.155   1.039   1.056   1.017   1.458   1.435   1.636   1.455   1.416   1.369   1.028   1.014   1.434   1.412   1.675   2.020   1.637   1.380   0.930   1.015   1.192   1.278   0.903   1.136   1.321   1.367   1.004   1.000   1.219   1.163   1.164   1.233   0.841   1.181   1.331   1.403   1.257   1.667   1.177   1.110   1.454   0.922   1.326   1.284   1.058   1.231   0.963   1.212   1.448   1.044   0.857   1.043   0.927   1.233   1.249   1.430   1.550   1.225   1.285   0.925   0.875   1.159   1.350
   227.59    1.293   1.258   1.271   1.097   0.994   0.986   0.917   0.939   0.904   1.050   1.039   1.216   1.608   1.677   1.641   0.952   0.827   0.860   1.110   0.988   1.113   1.181   1.403   1.102   1.100   1.289   1.172   1.145   1.239   1.717   1.919   1.422   1.225   1.117   1.190   1.079   1.133   1.170   1.427   1.435   1.557   1.269   1.103   1.468   1.166   0.952   0.973   1.385   1.557   1.411   1.198   1.067   1.095   1.053   1.129   1.243   1.478   1.211   1.477   1.625   1.690   1.342   1.168   1.043   0.888   1.047   1.178   1.513   1.671   1.140   1.122   1.458   1.400   1.455   1.052   1.240   1.045   0.993   0.877   1.277   1.162   1.136   1.173   1.313   1.053   1.109   1.272   1.090   0.935   0.985   0.944   1.004   0.957   1.334   1.280   1.458   1.218   1.497   1.750   1.731   1.584   1.435   1.271   1.324   1.462   1.034   1.046   0.999   1.166   1.066   1.457   1.547   1.084   1.143   1.405   1.562   1.359   1.303   1.100   1.057   1.098   1.031   1.112   1.053   0.990   0.891   1.038   1.061   0.899   1.109   1.039   1.002   0.955   1.036   0.946   1.075   1.189   1.284   1.005   1.109   1.221   1.557   1.506   1.522   1.334   1.608   1.174   1.459   1.184   1.326   1.405   1.753   1.872   1.849   1.726   1.394   1.233   1.344   1.106   1.214   0.981   0.974   1.102   1.134   1.528   1.006   1.207   0.898   0.841   0.944   0.933   1.234   1.088   1.437   1.259   1.347   1.297   1.319   1.609   1.396   1.634   1.342   1.132   1.240   1.239   1.191   1.123   0.954   0.936   1.379   1.526   1.443   1.572   1.562   0.976   1.225   1.236   1.046   1.030   1.073
   217.24    0.964   0.977   0.830   1.108   0.964   0.786   0.810   1.023   1.037   0.889   1.086   1.249   1.232   1.241   1.264   1.122   1.201   1.161   1.447   1.367   1.184   1.204   1.263   1.152   1.072   1.129   1.189   1.060   1.450   1.729   1.742   1.535   1.460   1.318   1.234   1.061   0.977   1.272   1.610   1.476   1.602   1.378   1.266   1.301   1.099   1.397   1.481   1.455   1.365   1.276   1.354   1.069   1.167   1.151   1.150   1.612   1.744   1.189   1.586   1.357   1.456   1.560   1.082   1.102   1.211   1.210   1.371   1.300   1.873   1.448   1.321   1.284   1.404   1.520   1.290   1.398   1.560   1.196   0.974   1.319   1.516   1.479   1.191   1.088   1.396   1.250   1.292   1.020   1.194   1.025   1.070   1.268   1.393   1.162   1.161   1.253   1.329   1.317   1.547   1.630   1.342   1.150   1.153   1.232   1.270   0.836   0.862   0.978   1.097   1.454   1.560   1.415   1.108   0.961   1.015   1.277   1.390   1.013   0.803   1.137   1.076   1.006   1.128   0.813   0.986   1.206   0.841   0.994   1.124   1.120   1.460   1.123   0.835   0.993   0.989   1.000   1.025   0.977   1.149   0.922   1.064   1.262   1.596   1.455   1.530   1.368   1.161   1.213   1.354   1.259   1.422   1.392   1.488   1.487   1.487   1.031   1.211   1.017   0.739   0.977   0.899   0.765   1.174   1.201   1.517   1.284   1.173   0.999   0.919   0.855   0.932   1.000   1.153   1.170   1.255   1.564   1.907   2.008   1.524   1.527   1.194   1.336   1.384   0.889   1.037   0.807   1.165   1.003   0.941   1.329   1.566   1.311   1.267   1.099   1.256   1.177   1.195   1.117   1.288   1.073
   206.90    0.908   0.786   1.018   1.004   1.079   1.271   1.294   1.098   0.954   0.843   0.894   1.274   1.022   1.263   1.208   1.121   1.545   1.707   1.342   1.223   0.909   1.235   1.203   1.367   1.182   1.154   1.070   1.181   1.631   1.483   1.598   1.744   1.506   1.522   1.371   1.413   1.144   1.416   1.574   1.604   1.486   0.903   1.225   0.974   0.915   1.294   0.957   1.176   0.998   1.083   0.946   1.090   1.064   1.202   1.165   1.432   1.628   1.229   1.303   1.563   1.776   1.746   1.288   1.226   1.100   1.101   1.487   1.717   1.707   1.624   1.576   0.984   1.367   1.351   1.256   1.451   1.314   1.337   1.294   1.340   1.225   1.449   1.574   1.488   1.411   1.358   1.280   0.946   1.023   1.020   1.092   1.132   1.447   0.937   1.094   1.308   1.238   1.143   1.132   1.341   1.468   1.003   1.105   0.938   0.885   0.968   0.961   1.101   1.294   1.487   1.205   1.467   1.681   1.071   1.245   0.898   1.394   1.297   1.045   0.943   1.010   0.929   1.080   1.056   1.242   1.273   1.336   1.516   1.041   1.263   1.436   1.311   1.097   0.841   0.766   0.969   1.044   0.863   1.032   1.214   1.073   1.053   1.320   1.334   1.562   1.480   0.987   1.024   1.089   1.078   1.624   1.153   1.134   1.089   1.279   1.319   1.422   0.851   0.917   0.851   0.891   1.041   1.375   1.250   1.495   1.301   1.352   1.116   1.097   1.151   1.149   0.795   1.176   1.355   1.052   1.214   1.437   1.807   1.464   1.337   1.336   1.182   1.299   1.155   1.186   1.095   0.894   1.190   1.385   1.324   1.432   1.230   0.814   1.032   1.199   0.914   1.045   1.102   1.256   1.179
   196.55    1.041   1.146   1.277   1.051   1.302   1.103   1.187   0.873   1.107   1.028   0.968   1.249   0.890   0.979   1.081   1.442   1.573   1.264   1.302   1.394   1.052   1.403   1.665   1.452   1.595   1.391   1.076   1.159   1.455   1.546   1.882   1.374   1.439   1.372   1.954   1.477   1.822   1.600   1.593   1.363   1.099   1.112   1.284   1.179   1.264   1.228   1.321   1.049   1.228   0.983   1.358   1.185   1.242   1.286   1.213   1.277   1.350   1.314   1.110   1.226   1.523   1.510   1.374   1.200   1.368   1.238   1.562   1.460   1.616   1.596   1.135   1.181   1.103   1.468   1.414   1.725   1.602   1.500   1.755   1.352   1.524   1.835   2.046   2.170   1.615   1.792   1.680   1.332   1.175   1.137   1.473   1.075   1.267   1.249   1.377   1.532   1.473   1.109   1.001   1.092   1.352   1.200   1.238   0.960   1.187   1.046   1.221   0.949   1.306   1.276   1.322   1.335   1.436   1.120   0.753   0.935   1.080   1.275   1.502   1.217   1.406   1.013   0.945   0.962   1.325   1.598   1.930   1.545   1.078   1.190   1.029   0.947   0.967   1.030   1.195   0.736   0.928   1.041   1.072   1.351   1.093   0.996   0.932   1.224   1.384   1.128   1.178   1.174   1.248   1.408   1.552   1.404   0.912   1.046   0.975   1.201   1.214   1.021   0.977   0.896   1.084   1.414   1.042   1.367   1.341   1.109   1.245   0.926   0.959   1.190   1.252   1.131   1.192   1.339   0.991   1.223   1.562   1.703   1.654   1.661   1.393   1.245   1.246   1.339   1.156   1.153   1.250   1.105   1.402   1.404   1.086   1.231   0.844   0.951   1.207   0.961   0.988   1.116   0.901   0.793
   186.21    1.490   1.525   1.509   1.555   1.300   1.112   1.295   1.062   1.350   1.325   1.160   1.276   1.108   1.014   1.047   1.202   1.243   1.341   1.165   1.197   1.005   1.313   1.558   1.711   1.177   1.096   1.451   1.386   1.406   1.592   1.666   1.618   1.668   1.747   1.640   1.680   1.833   1.416   1.432   1.820   1.569   1.217   1.211   1.544   1.021   0.961   0.845   0.889   1.199   1.486   1.729   1.561   1.120   0.937   1.175   0.782   1.066   0.980   1.288   1.405   1.344   1.241   0.929   1.436   1.641   1.871   1.385   1.505   1.283   1.224   1.190   1.056   1.068   1.145   1.299   1.406   1.439   1.597   1.632   1.735   1.512   1.668   1.801   1.951   1.739   1.694   1.938   1.701   1.325   1.210   1.447   1.409   0.933   1.216   1.103   1.575   1.198   1.098   0.785   1.091   1.409   1.300   1.105   1.227   1.175   0.902   0.803   1.100   1.123   1.091   1.115   1.127   1.449   1.030   0.819   0.948   0.881   1.092   1.170   0.970   1.217   1.213   1.138   0.801   1.050   1.604   1.720   1.646   1.355   1.245   1.005   0.927   1.195   1.052   0.871   0.993   0.998   1.068   1.264   0.993   1.136   0.980   0.742   1.015   1.200   1.004   1.154   1.284   1.312   1.360   1.489   1.112   0.919   1.170   1.267   1.203   1.378   1.573   1.419   1.066   1.145   1.329   1.234   1.206   1.068   1.186   1.149   1.200   1.073   1.099   1.296   0.985   1.098   0.842   0.883   1.213   1.417   1.336   1.320   1.149   1.481   1.629   1.478   1.406   1.370   1.258   1.203   1.152   1.331   1.432   1.078   1.132   1.057   0.959   1.028   1.196   1.138   1.137   1.073   0.864
   175.86    1.923   1.423   1.732   1.448   1.561   1.036   0.864   1.114   1.260   0.920   1.138   1.069   1.259   1.106   1.375   1.266   1.035   0.998   1.096   1.088   1.008   1.021   1.190   1.304   0.937   1.227   1.506   1.435   1.204   1.433   1.507   1.649   1.731   1.425   1.453   1.465   1.400   1.100   1.512   1.949   1.565   1.629   1.588   1.709   1.135   0.878   0.934   1.183   1.292   1.189   1.346   1.541   1.333   1.194   1.140   1.013   0.924   0.957   1.263   1.034   1.072   1.150   1.261   1.268   1.557   1.317   1.706   1.745   1.167   0.941   1.013   1.092   1.194   1.154   1.486   1.282   1.059   1.297   0.946   1.324   1.513   1.909   2.015   2.091   2.173   2.188   1.777   1.623   1.754   1.854   1.303   1.174   1.251   1.202   1.300   1.461   1.529   1.427   1.237   1.389   1.541   1.219   1.105   1.102   1.080   1.147   0.717   0.873   1.141   0.971   1.238   1.218   1.300   1.224   1.032   0.952   1.116   1.098   0.991   1.052   1.319   1.045   1.082   0.942   1.215   1.384   1.601   1.709   1.504   1.202   1.299   1.394   1.332   1.411   1.052   0.972   1.129   1.210   1.218   0.923   1.095   0.949   0.845   1.049   1.073   1.062   1.167   1.095   1.143   1.039   1.133   1.139   1.029   1.461   1.167   1.208   1.259   1.445   1.302   1.053   1.222   1.208   0.931   1.080   0.964   0.910   0.863   1.213   1.207   1.154   1.476   1.484   1.017   0.906   0.756   0.925   1.234   1.273   1.500   1.675   1.091   1.528   1.623   1.205   0.965   1.104   1.407   1.451   1.180   1.116   1.005   1.081   0.899   1.041   1.079   1.056   1.168   0.987   0.956   1.011
   165.52    2.084   1.476   1.664   1.565   1.248   1.219   0.970   0.981   1.015   1.005   1.274   1.490   1.201   1.341   1.334   1.418   0.866   1.206   1.109   1.156   1.002   1.127   1.059   1.253   1.212   1.064   1.422   1.203   1.179   1.218   1.492   1.550   1.159   1.498   1.497   1.063   1.175   1.313   1.317   1.738   1.635   1.443   1.389   1.577   1.263   1.254   1.030   1.124   1.048   1.136   1.191   1.557   1.314   1.047   1.022   0.984   0.856   1.006   1.374   1.071   1.256   1.502   2.008   1.413   1.732   1.626   1.596   1.633   1.089   1.059   1.145   1.441   1.458   1.463   1.230   1.272   1.372   1.661   1.344   1.187   1.130   1.413   1.632   1.559   1.819   1.847   1.850   1.921   1.480   1.762   1.569   1.434   1.182   1.084   1.037   1.272   1.418   1.400   1.713   1.819   1.690   1.699   1.137   1.220   0.975   1.116   0.854   0.881   1.051   1.038   1.240   0.784   1.031   0.971   0.923   1.186   1.120   1.383   1.530   1.079   1.400   1.196   1.003   1.120   1.510   1.338   1.404   1.524   1.123   1.208   1.199   1.495   1.011   1.322   1.017   1.186   0.983   1.067   1.182   1.031   0.940   0.919   0.867   0.753   0.996   0.917   1.056   1.160   1.113   1.405   1.543   0.979   1.137   1.496   1.527   1.641   1.416   1.427   1.073   0.930   0.937   0.958   0.790   0.962   1.048   0.892   0.760   1.091   1.189   1.382   1.608   1.689   1.401   0.827   0.922   0.912   1.151   1.367   1.596   1.249   1.371   1.660   1.546   1.810   1.468   1.330   1.269   1.220   1.278   1.055   1.087   0.904   0.977   1.024   0.921   0.989   1.215   1.106   1.197   1.013
   155.17    2.116   1.826   1.729   1.305   1.116   1.262   1.074   0.833   0.910   1.027   1.273   1.415   1.254   1.482   1.499   1.065   1.072   1.312   1.049   1.116   0.873   1.110   1.361   1.169   1.395   1.141   1.258   1.336   1.117   1.137   1.282   1.419   1.456   1.621   1.220   1.196   1.356   1.318   1.745   1.600   1.298   1.320   1.173   1.437   1.784   1.552   1.273   1.244   1.094   1.401   1.486   1.369   1.321   1.209   1.214   1.168   0.885   1.008   1.207   0.991   1.386   1.498   1.856   1.902   1.625   1.399   1.359   1.514   1.390   1.319   1.599   1.471   1.284   1.514   1.408   1.385   1.311   1.486   1.337   1.615   1.290   1.189   1.543   1.507   1.553   1.319   1.735   1.951   1.760   1.752   1.410   1.287   1.274   1.357   1.286   1.361   1.236   1.167   1.429   1.819   1.898   1.776   1.602   1.377   1.418   1.221   0.995   0.918   0.982   0.937   1.126   1.154   0.781   0.837   0.840   1.102   1.317   1.088   1.360   1.150   1.062   1.229   1.207   1.081   1.303   1.634   1.594   1.490   1.051   0.907   1.266   1.561   1.261   1.297   1.281   1.513   1.312   1.293   0.957   0.807   1.046   1.114   0.920   0.964   1.157   0.980   0.972   1.200   1.123   1.287   1.466   1.379   1.326   1.506   1.698   1.776   1.445   1.476   1.532   1.114   0.937   1.259   1.290   1.256   1.358   1.061   1.244   1.176   1.350   1.168   1.277   1.470   1.300   1.032   1.118   1.009   1.323   1.389   1.103   1.420   1.632   1.957   1.982   2.023   1.824   1.777   1.332   1.222   0.908   1.127   1.194   1.037   1.045   1.101   1.084   0.973   1.270   0.999   0.899   1.081
   144.83    1.877   1.960   1.918   1.458   1.058   1.275   0.983   1.221   1.146   1.071   0.956   1.220   1.508   1.436   1.313   0.932   1.305   1.395   1.362   1.259   1.359   1.216   1.235   1.159   1.446   1.553   1.689   1.226   1.042   1.240   1.395   1.212   1.372   1.150   1.215   1.318   1.481   1.455   1.806   1.333   1.323   1.231   1.570   1.239   1.576   1.748   1.756   1.302   1.190   1.429   1.314   1.148   1.087   1.354   1.293   1.197   0.992   0.977   0.944   1.317   1.351   1.199   1.575   1.881   1.708   1.634   1.458   1.756   1.937   1.992   1.482   1.304   1.172   1.208   1.077   0.985   1.141   1.266   1.383   1.342   1.337   1.437   1.615   1.181   1.039   1.452   1.667   2.068   2.094   1.369   1.156   0.899   1.149   1.007   1.142   1.424   1.063   1.106   1.191   1.562   1.645   1.775   1.563   1.280   1.298   1.187   1.107   1.144   0.995   0.907   0.932   1.272   0.942   0.760   1.087   0.777   1.286   1.613   1.435   1.492   1.458   1.024   1.079   1.293   1.322   1.485   1.215   1.324   1.158   1.027   1.154   1.184   1.352   1.501   1.493   1.565   1.576   1.398   1.029   1.034   1.147   0.903   0.901   0.978   0.925   0.936   0.946   0.946   1.337   1.442   1.204   1.433   1.641   1.374   1.521   1.444   1.489   1.404   1.181   1.039   1.392   1.532   1.642   1.314   1.363   1.277   1.295   1.033   1.392   0.940   1.072   1.162   1.423   1.067   1.553   1.552   1.555   1.515   1.360   1.200   1.352   1.612   1.781   1.848   1.387   1.395   1.587   1.553   1.104   1.429   1.268   1.195   0.981   1.295   1.116   1.560   1.572   0.936   0.871   1.090
   134.48    1.646   1.670   1.382   1.132   1.077   1.207   1.294   1.253   1.472   1.240   0.861   1.363   1.091   1.481   1.200   1.271   1.119   1.365   1.081   1.282   1.152   1.481   1.513   1.721   1.380   1.816   1.773   1.420   1.154   1.308   1.386   1.252   1.276   0.988   1.272   1.051   1.127   1.540   1.618   1.449   1.467   1.455   1.546   1.223   1.571   1.745   1.741   1.105   1.210   1.398   1.481   1.228   1.027   1.363   1.447   1.099   0.759   0.937   0.854   1.122   1.275   1.108   1.450   1.289   1.679   2.062   1.941   1.999   2.029   2.062   1.333   1.176   1.101   1.032   0.986   1.070   1.023   1.118   1.108   0.996   1.344   1.310   1.143   1.377   1.092   1.307   1.622   1.736   1.998   1.616   1.207   1.170   1.008   1.164   1.591   1.405   1.400   0.812   1.280   1.465   1.347   1.757   1.512   1.429   1.396   0.891   1.166   1.334   1.106   1.033   0.936   1.226   1.484   1.353   1.128   0.873   1.290   1.386   1.378   1.332   1.270   1.102   1.186   1.380   1.504   1.282   1.084   1.257   1.350   1.195   0.947   1.298   1.155   1.057   1.322   1.476   1.429   1.146   1.215   0.961   0.822   0.917   1.105   0.996   0.948   0.904   1.077   1.404   1.270   1.484   1.081   1.350   1.377   1.087   1.004   1.043   1.146   1.193   1.037   0.976   1.312   1.238   1.502   1.389   1.407   1.379   1.188   1.269   1.466   1.127   1.042   1.175   1.323   1.434   1.724   1.730   1.326   1.293   0.957   1.286   1.502   1.599   1.350   1.629   1.215   1.398   1.752   1.867   1.319   1.198   1.389   1.315   1.350   1.243   1.481   1.350   1.399   1.218   0.883   1.011
   124.14    1.545   1.406   1.164   1.251   1.178   1.134   1.130   1.002   1.063   1.361   0.976   1.322   1.197   1.214   1.313   1.412   1.200   1.324   1.244   1.104   0.795   1.138   1.434   1.537   1.259   1.459   1.502   1.714   1.496   1.092   1.079   1.471   1.688   1.364   1.196   1.336   1.543   1.181   1.348   1.474   1.600   1.124   0.974   1.413   1.362   1.577   1.581   1.264   1.151   1.229   1.174   1.283   1.229   1.310   1.205   1.183   0.996   0.852   0.933   0.949   0.998   1.128   1.110   1.465   1.217   1.654   2.002   2.098   1.824   1.768   1.565   1.383   1.353   0.866   1.288   1.421   1.351   1.004   1.205   1.142   1.416   1.394   1.312   1.542   1.165   1.155   1.342   1.664   1.842   1.588   1.470   1.123   1.429   1.465   1.688   1.401   1.430   1.285   1.855   1.651   1.839   2.017   1.671   1.434   1.485   0.982   1.165   1.130   1.068   1.019   0.898   1.032   1.172   1.465   1.631   1.251   1.028   0.997   1.002   0.842   1.166   0.940   1.192   1.060   1.163   1.226   1.087   1.293   1.089   1.083   0.836   1.108   0.997   1.174   1.130   1.124   1.237   1.181   1.325   1.400   1.050   1.328   1.044   1.129   0.813   1.167   1.050   1.385   1.596   1.362   1.583   1.505   1.309   1.052   1.121   0.893   1.056   1.332   0.953   1.011   1.004   1.042   1.285   1.120   1.288   1.054   1.107   1.130   1.375   0.993   1.305   1.024   1.342   1.645   1.623   1.417   1.126   1.014   1.101   1.242   1.578   1.814   1.638   1.718   1.163   1.619   1.804   1.479   1.443   1.362   1.300   0.981   1.133   1.133   1.292   1.252   1.134   1.345   1.100   1.401
   113.79    1.306   1.677   1.344   1.021   0.928   1.165   1.016   0.882   1.225   1.113   1.187   0.951   1.233   1.430   1.487   1.447   1.233   1.221   1.226   1.087   1.339   1.457   1.153   1.387   1.002   1.151   1.412   1.505   1.329   1.168   1.020   1.182   1.698   1.603   1.317   1.532   1.338   1.567   1.621   1.255   1.611   1.254   1.315   1.427   1.308   1.613   1.407   1.154   0.799   0.957   1.064   1.021   1.016   0.908   1.201   1.314   1.261   0.823   1.014   1.211   1.262   0.955   1.114   1.203   1.407   1.767   2.003   2.010   1.876   2.091   1.508   1.121   1.006   0.918   1.224   1.135   1.125   1.142   1.331   1.404   1.465   1.367   1.283   1.363   1.435   1.117   1.528   1.776   1.789   1.285   1.050   0.976   1.267   1.357   1.443   1.522   1.272   1.864   1.913   1.660   1.748   1.821   1.368   1.465   1.677   1.497   1.142   1.510   1.491   1.320   1.006   0.918   0.907   1.152   1.381   1.062   0.914   1.127   1.097   1.159   1.078   1.131   1.344   0.997   0.925   1.327   1.095   1.024   1.211   1.142   1.415   1.084   1.129   1.024   1.250   1.080   1.202   1.035   1.408   1.423   1.248   1.199   1.028   1.012   1.174   1.076   1.193   1.391   1.504   1.549   1.619   1.587   1.136   0.904   0.914   1.027   1.440   1.311   0.958   0.965   1.004   1.156   1.109   1.249   1.539   1.347   0.887   1.172   1.197   1.020   1.108   1.068   1.402   1.577   1.277   1.218   0.903   0.926   1.086   1.328   1.081   1.617   1.769   1.564   1.595   1.605   1.888   1.379   1.267   1.245   1.059   1.299   1.408   1.079   0.850   1.078   1.330   0.902   1.195   1.521
   103.45    1.188   1.432   1.425   1.516   1.119   1.282   1.074   1.141   1.000   1.014   1.246   1.399   1.121   1.286   1.453   1.702   1.756   1.227   0.921   1.272   1.562   1.455   1.151   1.077   1.086   1.104   1.267   1.304   1.100   1.248   1.337   1.298   1.798   1.741   1.642   1.391   1.632   1.747   1.280   1.312   1.682   1.280   1.435   1.177   1.255   1.449   1.533   1.398   0.999   0.922   0.969   1.041   0.941   1.023   1.195   1.133   1.175   1.210   0.933   1.127   1.014   1.094   1.266   1.277   1.289   1.432   1.510   1.458   1.537   1.789   2.172   1.496   1.155   1.342   1.143   0.934   0.919   1.319   1.498   1.057   1.114   1.388   1.484   1.309   1.226   1.211   1.436   1.562   1.622   1.176   1.047   1.039   1.119   1.182   1.217   1.448   1.321   1.778   1.671   1.821   1.602   1.579   1.209   1.701   1.569   1.276   1.389   1.749   1.629   1.267   1.182   1.048   1.002   1.101   1.080   1.208   1.112   1.414   1.499   1.492   1.390   1.635   1.465   1.483   1.593   1.567   1.230   1.328   0.858   1.006   1.193   1.296   0.794   1.312   1.265   1.080   0.989   1.116   1.269   1.621   1.387   1.192   1.037   0.925   0.945   0.910   1.019   1.070   1.133   1.313   1.561   1.083   0.994   0.993   0.911   1.281   1.330   1.132   1.458   1.135   0.970   0.866   0.984   1.280   1.511   1.091   1.127   1.065   0.984   1.401   1.074   1.185   1.534   1.180   1.231   1.067   0.878   1.008   0.993   1.277   1.282   1.500   1.921   1.931   1.579   1.694   1.616   1.525   0.949   1.053   0.907   1.104   1.483   1.103   0.891   1.154   1.351   1.163   1.093   1.082
    93.10    1.671   1.091   1.444   1.381   1.461   1.246   0.724   1.029   1.208   1.127   1.123   1.076   1.158   0.967   1.297   1.334   1.533   1.523   1.150   1.257   1.460   1.377   1.045   0.958   0.937   1.042   1.090   0.928   1.231   1.175   1.064   1.366   1.587   1.627   1.248   1.542   1.269   1.374   1.618   1.610   1.651   1.288   1.157   1.115   1.118   1.177   0.976   0.964   1.029   0.877   0.959   0.960   0.929   1.095   0.885   0.992   1.057   1.280   1.093   1.007   0.925   1.163   1.227   1.387   1.203   1.198   1.326   1.415   1.594   1.876   2.063   1.528   1.414   1.308   1.488   1.332   1.135   1.086   1.487   0.993   1.134   1.188   1.184   1.355   1.474   1.587   1.445   1.492   1.528   1.064   1.185   1.412   1.037   0.822   1.151   1.390   1.495   1.809   1.548   1.432   1.228   1.349   1.276   1.568   1.448   1.451   1.492   1.673   1.644   1.252   1.221   1.194   0.876   0.827   1.126   1.273   1.533   1.564   1.703   1.434   1.743   1.853   1.928   1.784   1.592   1.361   1.392   1.206   1.155   1.063   1.040   0.936   1.146   1.339   1.319   1.480   1.429   1.493   1.192   1.306   1.368   1.188   1.098   1.254   1.026   1.042   0.952   1.123   1.017   1.213   1.237   1.380   0.822   0.885   0.928   0.917   1.177   1.084   1.281   0.966   1.135   1.260   1.054   0.959   1.190   1.364   1.192   1.027   1.413   1.454   1.066   1.000   1.185   0.991   1.201   1.006   1.216   0.937   1.066   1.132   1.558   1.554   1.488   1.667   1.421   1.256   1.438   1.419   1.021   1.172   0.952   0.890   1.058   0.952   1.100   1.073   1.336   1.183   0.925   1.029
    82.76    1.198   1.374   1.295   1.280   0.959   1.105   1.245   1.279   1.125   1.092   1.155   1.289   0.968   1.238   1.410   1.195   1.499   1.466   1.083   1.213   1.498   1.389   1.407   0.952   0.981   1.075   1.262   1.364   1.381   1.004   0.824   0.930   1.213   1.126   1.462   1.774   1.786   1.527   1.654   1.687   1.553   1.051   0.932   0.966   1.125   1.057   1.159   0.925   1.254   1.238   0.801   0.866   0.848   0.988   0.860   0.886   1.166   1.275   1.109   1.217   1.158   1.192   1.395   1.230   1.263   0.958   1.261   1.345   1.320   1.534   1.585   1.520   1.477   1.302   1.497   1.275   1.335   0.940   1.216   1.359   1.000   1.175   1.020   1.523   1.210   1.689   1.414   1.145   1.133   1.069   1.117   1.185   1.128   1.259   1.194   1.138   1.546   1.324   1.673   1.562   1.365   1.228   1.342   1.305   1.105   0.995   1.131   1.223   1.277   0.812   0.935   1.072   1.249   1.136   1.164   1.131   1.244   1.694   1.596   1.543   1.587   1.477   1.588   1.332   1.386   1.257   1.386   1.134   1.238   1.132   1.169   1.334   1.394   1.439   1.313   0.909   1.306   1.487   1.239   1.008   1.080   0.912   1.134   1.041   1.059   1.101   0.939   1.081   1.313   1.258   1.149   1.366   0.882   0.845   1.188   1.114   1.396   1.313   0.943   1.162   1.029   1.214   1.131   0.803   1.184   1.222   1.626   1.613   1.344   1.423   1.461   1.159   1.036   0.920   1.187   1.169   1.383   0.953   1.161   1.377   1.404   1.690   1.500   1.384   1.098   1.202   1.401   1.093   0.797   0.913   1.258   1.145   0.895   0.777   0.994   1.214   1.457   1.358   0.985   1.149
    72.41    1.070   0.988   1.076   1.085   0.830   1.077   1.137   1.161   1.090   1.069   1.156   1.442   1.315   1.458   1.438   1.353   1.724   1.572   1.205   1.169   1.274   1.315   1.321   1.042   0.980   1.105   1.385   1.614   1.318   1.039   1.120   0.964   1.066   1.298   1.192   1.660   1.412   1.389   1.385   1.217   1.177   1.154   0.941   1.217   1.317   1.059   1.528   1.605   1.422   1.147   0.751   0.947   1.050   0.901   0.796   0.925   1.026   1.275   1.465   1.110   0.870   1.065   1.074   1.294   1.304   1.447   1.159   1.237   0.983   1.374   1.208   1.437   1.457   1.088   1.284   1.672   1.114   0.946   1.151   1.112   1.048   1.206   1.176   1.679   1.476   1.496   1.383   1.116   1.141   0.943   0.981   1.312   1.252   1.133   1.307   1.291   1.363   1.678   1.826   1.635   1.658   1.715   1.445   1.113   1.272   0.947   1.013   1.306   1.030   1.104   0.787   0.970   0.831   1.035   1.143   1.192   1.312   1.428   1.476   1.348   1.080   1.174   1.328   1.229   1.372   0.906   1.423   1.305   1.271   1.308   1.371   1.117   1.400   1.494   1.025   1.306   1.081   1.248   1.312   1.424   1.128   1.269   1.126   1.050   1.008   0.962   1.071   0.937   1.062   0.941   0.878   1.295   0.955   1.198   1.281   1.239   1.149   0.976   1.155   1.377   1.233   1.225   1.111   1.087   1.219   1.532   1.663   1.570   1.025   1.208   1.217   1.140   1.092   1.066   1.228   1.317   1.192   1.022   1.392   1.159   1.421   1.445   1.494   1.283   1.440   1.004   1.202   1.270   0.842   1.251   1.413   1.294   0.988   1.135   1.421   1.404   1.140   1.507   1.336   1.685
    62.07    1.311   1.180   1.106   0.994   0.845   1.038   1.236   1.221   1.096   1.068   1.362   1.480   1.349   1.249   1.443   1.137   1.472   1.611   1.240   1.249   1.134   1.208   1.143   0.825   1.143   1.029   1.347   1.511   1.243   1.022   1.062   1.138   1.268   1.293   1.298   1.430   1.579   1.585   1.560   1.496   0.962   1.035   0.993   1.098   1.456   1.675   1.792   1.836   1.333   0.833   0.946   0.965   1.112   0.979   0.786   1.048   1.239   1.396   1.092   1.230   0.882   0.891   1.132   1.253   1.303   1.181   1.163   1.270   1.205   1.325   1.482   1.223   1.043   1.070   1.379   1.748   1.163   0.964   1.072   0.908   1.024   1.319   1.664   1.877   1.625   1.261   1.281   1.242   1.137   1.260   1.062   1.375   1.236   1.444   1.652   1.895   1.724   1.445   1.632   1.371   1.393   1.770   1.209   1.409   1.024   1.304   1.052   1.148   1.256   0.961   0.947   0.764   0.851   0.955   0.802   1.163   1.439   1.460   1.055   0.843   1.140   0.942   1.095   1.293   1.270   1.136   1.409   1.444   1.446   1.314   1.250   0.951   1.203   1.187   1.333   1.546   1.366   1.256   1.428   1.366   1.308   1.242   1.032   1.049   1.166   0.853   1.075   0.890   0.921   1.047   0.776   0.936   1.258   1.112   1.089   1.302   1.050   0.998   1.014   1.271   1.100   1.162   1.076   1.006   1.407   1.426   1.556   1.307   1.059   1.450   1.799   1.266   0.995   0.878   1.166   0.967   0.975   1.207   1.380   1.435   1.155   1.354   1.506   1.536   1.256   1.136   0.953   1.010   1.087   1.064   0.929   1.093   1.090   0.996   1.152   1.404   1.370   1.815   1.954   1.756
    51.72    1.246   1.095   1.097   1.277   0.783   1.064   1.001   1.051   1.054   1.138   1.312   1.278   1.489   1.792   1.374   1.191   1.274   1.575   1.219   1.322   1.373   1.031   0.942   0.878   1.167   1.407   1.313   1.180   1.040   1.143   1.442   1.775   1.305   1.553   1.789   1.449   1.939   1.798   1.553   1.209   1.327   1.228   1.195   0.989   1.229   1.533   1.802   1.588   1.404   1.013   1.079   1.107   1.178   0.983   0.915   0.882   0.981   1.136   1.377   0.938   1.115   0.988   1.146   1.036   1.148   0.913   1.152   1.054   1.304   1.451   0.824   1.078   1.131   0.950   1.445   1.509   1.832   1.507   1.149   1.031   0.822   1.155   1.341   1.625   1.439   1.393   1.421   0.911   1.096   1.160   1.352   1.530   1.589   1.899   1.594   1.797   1.641   1.596   1.641   1.787   1.810   1.809   1.410   1.146   1.111   1.243   1.032   0.895   0.980   1.055   0.865   0.824   0.854   1.024   0.960   1.384   1.404   1.392   1.132   0.964   0.867   0.947   1.205   1.138   1.082   1.208   1.312   1.113   1.280   1.351   1.056   1.022   1.605   1.325   1.489   1.411   1.025   1.259   1.481   1.292   0.949   1.210   0.883   0.959   1.016   0.965   1.065   1.071   1.169   1.139   0.929   1.351   1.180   1.158   1.518   1.292   1.257   0.905   1.071   1.082   1.110   1.004   1.167   1.195   1.264   1.361   1.482   1.214   0.965   1.601   1.562   1.325   1.230   1.240   1.177   1.178   1.226   1.057   1.223   1.327   1.068   1.221   1.295   1.199   1.208   1.289   1.216   0.920   1.093   0.941   1.008   1.133   1.022   1.016   1.543   1.406   1.863   1.943   2.227   1.486
    41.38    1.183   1.431   1.036   1.455   1.045   1.005   0.921   1.013   0.893   1.188   1.510   1.662   1.292   1.483   1.622   1.314   1.537   1.478   1.613   1.600   1.488   1.040   0.925   1.089   1.199   1.313   1.431   1.276   1.389   1.409   1.840   1.926   1.524   1.495   1.529   1.918   1.919   1.734   1.707   1.453   1.407   1.538   1.331   1.304   1.385   1.417   1.560   1.312   0.970   0.982   1.044   1.006   1.150   1.091   0.968   1.079   0.898   0.938   1.101   1.051   1.218   0.959   0.769   1.043   0.931   0.913   0.915   1.061   1.194   1.255   0.888   1.230   1.192   1.317   1.379   1.548   1.797   1.708   1.098   1.224   1.161   1.413   1.354   1.600   1.626   1.499   1.167   1.059   1.137   1.366   1.351   1.172   1.224   1.555   1.973   1.966   2.067   1.758   1.591   1.635   1.681   1.407   1.340   0.882   1.090   0.951   1.107   1.217   1.096   1.078   0.919   0.992   0.956   0.977   0.875   1.053   1.375   1.107   1.160   0.809   1.112   1.169   1.112   1.057   0.946   1.208   1.187   1.026   1.101   1.131   1.268   1.555   1.786   1.732   1.333   1.110   1.293   1.193   1.215   1.278   0.923   1.172   0.989   1.211   1.067   0.934   0.991   0.944   0.947   1.059   1.030   1.210   1.463   1.351   1.495   1.451   0.979   1.179   1.073   1.016   1.046   0.948   1.008   1.278   0.961   0.968   1.290   0.917   0.914   1.456   1.759   1.667   1.627   1.289   1.196   1.073   0.976   1.163   0.983   0.935   1.123   1.077   0.873   1.206   1.199   1.093   1.230   1.101   1.033   0.897   0.989   0.907   1.395   1.332   1.539   1.301   1.724   2.001   2.136   1.721
    31.03    0.997   1.172   1.337   1.565   1.133   0.902   1.032   1.112   1.175   1.371   1.417   1.408   1.351   1.603   1.235   1.056   1.532   1.720   1.693   1.851   1.638   1.197   1.276   1.130   1.118   1.307   1.219   1.683   1.689   1.563   1.958   2.065   2.052   1.634   2.031   2.172   1.843   1.603   1.381   1.208   1.594   1.493   1.886   1.807   1.791   1.391   1.308   0.948   1.206   1.034   1.266   1.132   1.020   0.951   0.943   1.157   1.283   1.012   1.370   1.019   1.240   0.910   1.127   1.129   1.024   1.217   1.020   1.171   1.107   1.102   1.210   1.157   1.149   1.098   1.386   1.324   1.479   1.566   1.296   0.836   1.131   1.662   1.869   1.799   1.580   1.448   1.461   1.325   0.998   1.140   0.957   0.979   1.671   1.696   1.850   1.949   1.647   1.802   1.457   1.502   1.410   1.475   1.047   1.306   1.321   1.099   1.180   1.395   1.199   0.908   1.002   1.089   0.765   0.880   0.877   0.778   1.280   1.420   1.397   0.886   1.001   1.203   1.271   0.977   0.941   1.079   1.317   1.190   1.360   1.355   1.222   1.428   1.563   1.435   1.210   1.162   1.111   1.266   1.245   1.311   1.358   1.081   1.280   1.551   1.633   1.228   1.295   0.929   0.973   1.288   1.034   1.189   1.244   1.075   1.058   1.135   1.307   1.152   1.384   1.166   1.064   1.232   1.482   1.209   1.116   1.496   1.378   1.221   1.105   1.357   1.397   1.542   1.588   1.006   0.748   0.865   1.221   1.041   1.161   1.039   0.828   0.871   0.881   1.154   1.385   1.212   1.053   1.198   1.109   0.774   0.954   1.258   1.524   1.185   1.385   1.314   1.880   2.063   2.009   1.378
    20.69    1.124   1.178   1.301   1.385   1.182   1.209   1.020   1.334   1.533   1.551   1.570   1.638   1.378   1.305   1.449   1.315   1.423   1.299   1.511   1.682   1.328   1.166   1.418   1.039   1.231   1.392   1.298   1.973   1.702   1.338   1.856   1.919   1.723   1.642   1.876   2.304   2.468   1.787   1.543   1.655   1.468   1.644   2.191   2.241   1.763   1.620   1.380   1.248   1.338   1.487   1.403   1.468   1.077   0.924   1.011   0.777   1.115   1.074   1.283   1.245   1.210   1.338   1.131   1.211   1.196   1.092   1.016   1.110   1.204   1.304   1.072   1.339   1.393   1.274   1.521   1.551   1.640   1.401   1.513   1.225   1.308   1.495   1.792   1.885   1.590   1.168   1.439   1.062   1.290   0.957   0.857   1.264   1.588   1.938   1.933   1.663   1.671   1.623   1.440   1.539   1.624   1.124   1.089   1.081   0.945   0.887   1.207   1.477   1.073   0.846   0.907   0.985   0.945   0.814   1.003   1.244   1.263   1.262   1.324   1.248   1.327   1.015   1.167   0.963   1.059   0.842   1.227   1.416   1.497   1.104   1.133   1.011   1.557   1.635   1.255   1.015   1.120   1.220   1.243   1.525   1.297   1.343   1.779   1.616   1.264   1.363   1.177   1.453   1.003   1.190   1.218   1.109   1.071   1.286   0.854   0.986   1.303   1.070   1.022   1.031   1.100   1.435   1.275   1.232   1.077   1.343   1.591   1.397   1.026   1.023   0.984   1.219   1.307   0.999   0.894   0.995   1.272   0.830   0.969   1.111   1.252   1.072   0.731   1.033   1.193   1.310   1.144   1.253   0.977   1.217   1.280   1.360   1.543   1.291   1.218   1.541   1.910   1.816   1.639   1.505
    10.34    1.314   1.243   1.228   1.205   1.033   1.191   1.001   1.474   1.690   1.769   1.715   1.277   1.175   0.955   1.104   1.316   1.017   1.189   1.410   1.605   1.341   1.411   1.673   1.126   1.340   1.767   1.911   1.951   1.906   1.786   1.472   2.004   1.860   1.839   1.702   2.133   2.312   1.899   2.135   2.133   1.761   2.033   2.153   1.824   1.692   1.523   1.503   1.303   1.298   1.458   1.544   1.741   1.291   1.214   1.104   1.204   1.180   1.076   1.195   1.418   1.283   1.399   1.167   1.174   1.366   1.015   0.949   1.048   0.881   1.264   1.712   1.323   1.601   1.739   1.172   1.349   1.562   1.409   1.131   1.372   1.063   1.510   1.814   2.006   1.678   1.387   1.489   1.346   1.141   1.026   1.314   1.039   1.578   1.684   1.538   1.743   1.563   1.602   1.706   1.272   1.257   1.141   0.934   0.824   0.877   1.090   1.376   1.671   1.290   1.175   1.253   1.178   0.985   1.121   1.366   1.367   1.281   1.403   0.982   1.309   1.353   1.341   1.253   1.184   0.937   0.957   1.111   1.244   1.186   1.125   0.909   1.279   1.558   1.441   1.302   0.908   1.101   1.294   1.678   1.535   1.251   1.620   1.782   1.643   1.739   1.453   1.775   1.437   1.134   1.241   1.147   1.059   1.457   1.247   0.903   1.033   1.239   1.388   1.103   0.959   0.899   1.246   1.271   1.043   1.053   1.104   1.254   1.549   1.260   0.968   1.094   1.049   1.164   1.247   0.870   1.087   0.858   0.828   1.071   1.105   1.151   1.078   1.118   1.093   1.108   1.167   1.066   1.376   1.361   1.227   1.045   1.005   1.535   1.349   1.658   1.649   1.810   1.649   1.241   1.337
     0.00    1.268   1.516   1.136   0.983   0.927   1.165   1.306   1.166   1.487   1.602   1.244   1.076   1.031   0.881   0.965   0.989   0.943   1.026   1.146   1.368   1.152   1.430   1.643   1.318   1.328   1.565   1.709   1.311   1.311   1.513   1.537   1.791   1.902   1.837   1.945   2.188   2.285   2.358   2.047   1.885   2.044   1.936   1.766   1.192   1.416   1.001   0.986   1.119   1.258   1.382   1.563   1.700   1.641   1.834   1.231   1.536   1.167   1.213   1.081   1.097   1.330   1.418   1.375   1.621   1.463   0.993   1.197   1.065   1.319   1.594   1.781   1.482   1.210   1.513   1.658   1.223   1.273   1.211   1.430   1.517   1.258   1.182   1.367   1.577   1.825   1.680   1.415   1.485   1.533   1.182   1.283   1.297   1.521   1.647   1.906   1.794   1.558   1.485   1.691   1.165   1.407   1.011   0.936   1.005   0.984   1.103   1.259   1.448   1.650   1.193   1.091   1.106   1.080   1.371   1.238   1.458   1.613   1.831   1.468   1.025   1.214   1.211   1.080   1.135   1.063   0.968   0.959   1.038   1.078   0.952   1.106   1.335   1.495   0.955   1.155   1.100   0.997   1.238   1.338   1.509   1.615   1.462   1.453   1.719   1.257   1.220   1.539   1.597   1.598   1.504   1.379   1.655   1.863   1.536   1.279   1.036   1.326   1.239   0.979   1.056   0.990   1.149   1.248   1.230   1.528   1.169   1.277   1.281   1.234   0.986   0.931   1.072   1.081   1.223   0.997   1.170   0.897   0.873   0.894   1.045   1.107   1.269   1.119   1.228   1.109   0.956   1.221   1.195   1.275   1.257   1.107   0.989   1.150   1.405   1.496   1.269   1.576   1.487   1.214   1.004

   Height   Standard deviation at grid points for the v component:
   300.00    1.199   1.199   1.199   1.199   1.199   1.199   1.199   1.199   1.199   1.199   1.199   1.199   1.199   1.199   1.199   1.199   1.199   1.199   1.199   1.199   1.199   1.199   1.199   1.199   1.199   1.199   1.199   1.199   1.199   1.199   1.199   1.199   1.199   1.199   1.199   1.199   1.199   1.199   1.199   1.199   1.199   1.199   1.199   1.199   1.199   1.199   1.199   1.199   1.199   1.199   1.199   1.199   1.199   1.199   1.199   1.199   1.199   1.199   1.199   1.199   1.199   1.199   1.199   1.199   1.199   1.199   1.199   1.199   1.199   1.199   1.199   1.199   1.199   1.199   1.199   1.199   1.199   1.199   1.199   1.199   1.199   1.199   1.199   1.199   1.199   1.199   1.199   1.199   1.199   1.199   1.199   1.199   1.199   1.199   1.199   1.199   1.199   1.199   1.199   1.199   1.199   1.199   1.199   1.199   1.199   1.199   1.199   1.199   1.199   1.199   1.199   1.199   1.199   1.199   1.199   1.199   1.199   1.199   1.199   1.199   1.199   1.199   1.199   1.199   1.199   1.199   1.199   1.199   1.199   1.199   1.199   1.199   1.199   1.199   1.199   1.199   1.199   1.199   1.199   1.199   1.199   1.199   1.199   1.199   1.199   1.199   1.199   1.199   1.199   1.199   1.199   1.199   1.199   1.199   1.199   1.199   1.199   1.199   1.199   1.199   1.199   1.199   1.199   1.199   1.199   1.199   1.199   1.199   1.199   1.199   1.199   1.199   1.199   1.199   1.199   1.199   1.199   1.199   1.199   1.199   1.199   1.199   1.199   1.199   1.199   1.199   1.199   1.199   1.199   1.199   1.199   1.199   1.199   1.199   1.199   1.199   1.199   1.199   1.199   1.199
   289.66    1.199   1.199   1.199   1.199   1.199   1.199   1.199   1.199   1.199   1.199   1.199   1.199   1.199   1.199   1.199   1.199   1.199   1.199   1.199   1.199   1.199   1.199   1.199   1.199   1.199   1.199   1.199   1.199   1.199   1.199   1.199   1.199   1.199   1.199   1.199   1.199   1.199   1.199   1.199   1.199   1.199   1.199   1.199   1.199   1.199   1.199   1.199   1.199   1.199   1.199   1.199   1.199   1.199   1.199   1.199   1.199   1.199   1.199   1.199   1.199   1.199   1.199   1.199   1.199   1.199   1.199   1.199   1.199   1.199   1.199   1.199   1.199   1.199   1.199   1.199   1.199   1.199   1.199   1.199   1.199   1.199   1.199   1.199   1.199   1.199   1.199   1.199   1.199   1.199   1.199   1.199   1.199   1.199   1.199   1.199   1.199   1.199   1.199   1.199   1.199   1.199   1.199   1.199   1.199   1.199   1.199   1.199   1.199   1.199   1.199   1.199   1.199   1.199   1.199   1.199   1.199   1.199   1.199   1.199   1.199   1.199   1.199   1.199   1.199   1.199   1.199   1.199   1.199   1.199   1.199   1.199   1.199   1.199   1.199   1.199   1.199   1.199   1.199   1.199   1.199   1.199   1.199   1.199   1.199   1.199   1.199   1.199   1.199   1.199   1.199   1.199   1.199   1.199   1.199   1.199   1.199   1.199   1.199   1.199   1.199   1.199   1.199   1.199   1.199   1.199   1.199   1.199   1.199   1.199   1.199   1.199   1.199   1.199   1.199   1.199   1.199   1.199   1.199   1.199   1.199   1.199   1.199   1.199   1.199   1.199   1.199   1.199   1.199   1.199   1.199   1.199   1.199   1.199   1.199   1.199   1.199   1.199   1.199   1.199   1.199
   279.31    1.199   1.199   1.199   1.199   1.199   1.199   1.199   1.199   1.199   1.199   1.199   1.199   1.199   1.199   1.199   1.199   1.199   1.199   1.199   1.199   1.199   1.199   1.199   1.199   1.199   1.199   1.199   1.199   1.199   1.199   1.199   1.199   1.199   1.199   1.199   1.199   1.199   1.199   1.199   1.199   1.199   1.199   1.199   1.199   1.199   1.199   1.199   1.199   1.199   1.199   1.199   1.199   1.199   1.199   1.199   1.199   1.199   1.199   1.199   1.199   1.199   1.199   1.199   1.199   1.199   1.199   1.199   1.199   1.199   1.199   1.199   1.199   1.199   1.199   1.199   1.199   1.199   1.199   1.199   1.199   1.199   1.199   1.199   1.199   1.199   1.199   1.199   1.199   1.199   1.199   1.199   1.199   1.199   1.199   1.199   1.199   1.199   1.199   1.199   1.199   1.199   1.199   1.199   1.199   1.199   1.199   1.199   1.199   1.199   1.199   1.199   1.199   1.199   1.199   1.199   1.199   1.199   1.199   1.199   1.199   1.199   1.199   1.199   1.199   1.199   1.199   1.199   1.199   1.199   1.199   1.199   1.199   1.199   1.199   1.199   1.199   1.199   1.199   1.199   1.199   1.199   1.199   1.199   1.199   1.199   1.199   1.199   1.199   1.199   1.199   1.199   1.199   1.199   1.199   1.199   1.199   1.199   1.199   1.199   1.199   1.199   1.199   1.199   1.199   1.199   1.199   1.199   1.199   1.199   1.199   1.199   1.199   1.199   1.199   1.199   1.199   1.199   1.199   1.199   1.199   1.199   1.199   1.199   1.199   1.199   1.199   1.199   1.199   1.199   1.199   1.199   1.199   1.199   1.199   1.199   1.199   1.199   1.199   1.199   1.199
   268.97    1.199   1.199   1.199   1.199   1.199   1.199   1.199   1.199   1.199   1.199   1.199   1.199   1.199   1.199   1.199   1.199   1.199   1.199   1.199   1.199   1.199   1.199   1.199   1.199   1.199   1.199   1.199   1.199   1.199   1.199   1.199   1.199   1.199   1.199   1.199   1.199   1.199   1.199   1.199   1.199   1.199   1.199   1.199   1.199   1.199   1.199   1.199   1.199   1.199   1.199   1.199   1.199   1.199   1.199   1.199   1.199   1.199   1.199   1.199   1.199   1.199   1.199   1.199   1.199   1.199   1.199   1.199   1.199   1.199   1.199   1.199   1.199   1.199   1.199   1.199   1.199   1.199   1.199   1.199   1.199   1.199   1.199   1.199   1.199   1.199   1.199   1.199   1.199   1.199   1.199   1.199   1.199   1.199   1.199   1.199   1.199   1.199   1.199   1.199   1.199   1.199   1.199   1.199   1.199   1.199   1.199   1.199   1.199   1.199   1.199   1.199   1.199   1.199   1.199   1.199   1.199   1.199   1.199   1.199   1.199   1.199   1.199   1.199   1.199   1.199   1.199   1.199   1.199   1.199   1.199   1.199   1.199   1.199   1.199   1.199   1.199   1.199   1.199   1.199   1.199   1.199   1.199   1.199   1.199   1.199   1.199   1.199   1.199   1.199   1.199   1.199   1.199   1.199   1.199   1.199   1.199   1.199   1.199   1.199   1.199   1.199   1.199   1.199   1.199   1.199   1.199   1.199   1.199   1.199   1.199   1.199   1.199   1.199   1.199   1.199   1.199   1.199   1.199   1.199   1.199   1.199   1.199   1.199   1.199   1.199   1.199   1.199   1.199   1.199   1.199   1.199   1.199   1.199   1.199   1.199   1.199   1.199   1.199   1.199   1.199
   258.62    1.199   1.199   1.199   1.199   1.199   1.199   1.199   1.199   1.199   1.199   1.199   1.199   1.199   1.199   1.199   1.199   1.199   1.199   1.199   1.199   1.199   1.199   1.199   1.199   1.199   1.199   1.199   1.199   1.199   1.199   1.199   1.199   1.199   1.199   1.199   1.199   1.199   1.199   1.199   1.199   1.199   1.199   1.199   1.199   1.199   1.199   1.199   1.199   1.199   1.199   1.199   1.199   1.199   1.199   1.199   1.199   1.199   1.199   1.199   1.199   1.199   1.199   1.199   1.199   1.199   1.199   1.199   1.199   1.199   1.199   1.199   1.199   1.199   1.199   1.199   1.199   1.199   1.199   1.199   1.199   1.199   1.199   1.199   1.199   1.199   1.199   1.199   1.199   1.199   1.199   1.199   1.199   1.199   1.199   1.199   1.199   1.199   1.199   1.199   1.199   1.199   1.199   1.199   1.199   1.199   1.199   1.199   1.199   1.199   1.199   1.199   1.199   1.199   1.199   1.199   1.199   1.199   1.199   1.199   1.199   1.199   1.199   1.199   1.199   1.199   1.199   1.199   1.199   1.199   1.199   1.199   1.199   1.199   1.199   1.199   1.199   1.199   1.199   1.199   1.199   1.199   1.199   1.199   1.199   1.199   1.199   1.199   1.199   1.199   1.199   1.199   1.199   1.199   1.199   1.199   1.199   1.199   1.199   1.199   1.199   1.199   1.199   1.199   1.199   1.199   1.199   1.199   1.199   1.199   1.199   1.199   1.199   1.199   1.199   1.199   1.199   1.199   1.199   1.199   1.199   1.199   1.199   1.199   1.199   1.199   1.199   1.199   1.199   1.199   1.199   1.199   1.199   1.199   1.199   1.199   1.199   1.199   1.199   1.199   1.199
   248.28    1.199   1.199   1.199   1.199   1.199   1.199   1.199   1.199   1.199   1.199   1.199   1.199   1.199   1.199   1.199   1.199   1.199   1.199   1.199   1.199   1.199   1.199   1.199   1.199   1.199   1.199   1.199   1.199   1.199   1.199   1.199   1.199   1.199   1.199   1.199   1.199   1.199   1.199   1.199   1.199   1.199   1.199   1.199   1.199   1.199   1.199   1.199   1.199   1.199   1.199   1.199   1.199   1.199   1.199   1.199   1.199   1.199   1.199   1.199   1.199   1.199   1.199   1.199   1.199   1.199   1.199   1.199   1.199   1.199   1.199   1.199   1.199   1.199   1.199   1.199   1.199   1.199   1.199   1.199   1.199   1.199   1.199   1.199   1.199   1.199   1.199   1.199   1.199   1.199   1.199   1.199   1.199   1.199   1.199   1.199   1.199   1.199   1.199   1.199   1.199   1.199   1.199   1.199   1.199   1.199   1.199   1.199   1.199   1.199   1.199   1.199   1.199   1.199   1.199   1.199   1.199   1.199   1.199   1.199   1.199   1.199   1.199   1.199   1.199   1.199   1.199   1.199   1.199   1.199   1.199   1.199   1.199   1.199   1.199   1.199   1.199   1.199   1.199   1.199   1.199   1.199   1.199   1.199   1.199   1.199   1.199   1.199   1.199   1.199   1.199   1.199   1.199   1.199   1.199   1.199   1.199   1.199   1.199   1.199   1.199   1.199   1.199   1.199   1.199   1.199   1.199   1.199   1.199   1.199   1.199   1.199   1.199   1.199   1.199   1.199   1.199   1.199   1.199   1.199   1.199   1.199   1.199   1.199   1.199   1.199   1.199   1.199   1.199   1.199   1.199   1.199   1.199   1.199   1.199   1.199   1.199   1.199   1.199   1.199   1.199
   237.93    1.199   1.199   1.199   1.199   1.199   1.199   1.199   1.199   1.199   1.199   1.199   1.199   1.199   1.199   1.199   1.199   1.199   1.199   1.199   1.199   1.199   1.199   1.199   1.199   1.199   1.199   1.199   1.199   1.199   1.199   1.199   1.199   1.199   1.199   1.199   1.199   1.199   1.199   1.199   1.199   1.199   1.199   1.199   1.199   1.199   1.199   1.199   1.199   1.199   1.199   1.199   1.199   1.199   1.199   1.199   1.199   1.199   1.199   1.199   1.199   1.199   1.199   1.199   1.199   1.199   1.199   1.199   1.199   1.199   1.199   1.199   1.199   1.199   1.199   1.199   1.199   1.199   1.199   1.199   1.199   1.199   1.199   1.199   1.199   1.199   1.199   1.199   1.199   1.199   1.199   1.199   1.199   1.199   1.199   1.199   1.199   1.199   1.199   1.199   1.199   1.199   1.199   1.199   1.199   1.199   1.199   1.199   1.199   1.199   1.199   1.199   1.199   1.199   1.199   1.199   1.199   1.199   1.199   1.199   1.199   1.199   1.199   1.199   1.199   1.199   1.199   1.199   1.199   1.199   1.199   1.199   1.199   1.199   1.199   1.199   1.199   1.199   1.199   1.199   1.199   1.199   1.199   1.199   1.199   1.199   1.199   1.199   1.199   1.199   1.199   1.199   1.199   1.199   1.199   1.199   1.199   1.199   1.199   1.199   1.199   1.199   1.199   1.199   1.199   1.199   1.199   1.199   1.199   1.199   1.199   1.199   1.199   1.199   1.199   1.199   1.199   1.199   1.199   1.199   1.199   1.199   1.199   1.199   1.199   1.199   1.199   1.199   1.199   1.199   1.199   1.199   1.199   1.199   1.199   1.199   1.199   1.199   1.199   1.199   1.199
   227.59    1.199   1.199   1.199   1.199   1.199   1.199   1.199   1.199   1.199   1.199   1.199   1.199   1.199   1.199   1.199   1.199   1.199   1.199   1.199   1.199   1.199   1.199   1.199   1.199   1.199   1.199   1.199   1.199   1.199   1.199   1.199   1.199   1.199   1.199   1.199   1.199   1.199   1.199   1.199   1.199   1.199   1.199   1.199   1.199   1.199   1.199   1.199   1.199   1.199   1.199   1.199   1.199   1.199   1.199   1.199   1.199   1.199   1.199   1.199   1.199   1.199   1.199   1.199   1.199   1.199   1.199   1.199   1.199   1.199   1.199   1.199   1.199   1.199   1.199   1.199   1.199   1.199   1.199   1.199   1.199   1.199   1.199   1.199   1.199   1.199   1.199   1.199   1.199   1.199   1.199   1.199   1.199   1.199   1.199   1.199   1.199   1.199   1.199   1.199   1.199   1.199   1.199   1.199   1.199   1.199   1.199   1.199   1.199   1.199   1.199   1.199   1.199   1.199   1.199   1.199   1.199   1.199   1.199   1.199   1.199   1.199   1.199   1.199   1.199   1.199   1.199   1.199   1.199   1.199   1.199   1.199   1.199   1.199   1.199   1.199   1.199   1.199   1.199   1.199   1.199   1.199   1.199   1.199   1.199   1.199   1.199   1.199   1.199   1.199   1.199   1.199   1.199   1.199   1.199   1.199   1.199   1.199   1.199   1.199   1.199   1.199   1.199   1.199   1.199   1.199   1.199   1.199   1.199   1.199   1.199   1.199   1.199   1.199   1.199   1.199   1.199   1.199   1.199   1.199   1.199   1.199   1.199   1.199   1.199   1.199   1.199   1.199   1.199   1.199   1.199   1.199   1.199   1.199   1.199   1.199   1.199   1.199   1.199   1.199   1.199
   217.24    1.199   1.199   1.199   1.199   1.199   1.199   1.199   1.199   1.199   1.199   1.199   1.199   1.199   1.199   1.199   1.199   1.199   1.199   1.199   1.199   1.199   1.199   1.199   1.199   1.199   1.199   1.199   1.199   1.199   1.199   1.199   1.199   1.199   1.199   1.199   1.199   1.199   1.199   1.199   1.199   1.199   1.199   1.199   1.199   1.199   1.199   1.199   1.199   1.199   1.199   1.199   1.199   1.199   1.199   1.199   1.199   1.199   1.199   1.199   1.199   1.199   1.199   1.199   1.199   1.199   1.199   1.199   1.199   1.199   1.199   1.199   1.199   1.199   1.199   1.199   1.199   1.199   1.199   1.199   1.199   1.199   1.199   1.199   1.199   1.199   1.199   1.199   1.199   1.199   1.199   1.199   1.199   1.199   1.199   1.199   1.199   1.199   1.199   1.199   1.199   1.199   1.199   1.199   1.199   1.199   1.199   1.199   1.199   1.199   1.199   1.199   1.199   1.199   1.199   1.199   1.199   1.199   1.199   1.199   1.199   1.199   1.199   1.199   1.199   1.199   1.199   1.199   1.199   1.199   1.199   1.199   1.199   1.199   1.199   1.199   1.199   1.199   1.199   1.199   1.199   1.199   1.199   1.199   1.199   1.199   1.199   1.199   1.199   1.199   1.199   1.199   1.199   1.199   1.199   1.199   1.199   1.199   1.199   1.199   1.199   1.199   1.199   1.199   1.199   1.199   1.199   1.199   1.199   1.199   1.199   1.199   1.199   1.199   1.199   1.199   1.199   1.199   1.199   1.199   1.199   1.199   1.199   1.199   1.199   1.199   1.199   1.199   1.199   1.199   1.199   1.199   1.199   1.199   1.199   1.199   1.199   1.199   1.199   1.199   1.199
   206.90    1.199   1.199   1.199   1.199   1.199   1.199   1.199   1.199   1.199   1.199   1.199   1.199   1.199   1.199   1.199   1.199   1.199   1.199   1.199   1.199   1.199   1.199   1.199   1.199   1.199   1.199   1.199   1.199   1.199   1.199   1.199   1.199   1.199   1.199   1.199   1.199   1.199   1.199   1.199   1.199   1.199   1.199   1.199   1.199   1.199   1.199   1.199   1.199   1.199   1.199   1.199   1.199   1.199   1.199   1.199   1.199   1.199   1.199   1.199   1.199   1.199   1.199   1.199   1.199   1.199   1.199   1.199   1.199   1.199   1.199   1.199   1.199   1.199   1.199   1.199   1.199   1.199   1.199   1.199   1.199   1.199   1.199   1.199   1.199   1.199   1.199   1.199   1.199   1.199   1.199   1.199   1.199   1.199   1.199   1.199   1.199   1.199   1.199   1.199   1.199   1.199   1.199   1.199   1.199   1.199   1.199   1.199   1.199   1.199   1.199   1.199   1.199   1.199   1.199   1.199   1.199   1.199   1.199   1.199   1.199   1.199   1.199   1.199   1.199   1.199   1.199   1.199   1.199   1.199   1.199   1.199   1.199   1.199   1.199   1.199   1.199   1.199   1.199   1.199   1.199   1.199   1.199   1.199   1.199   1.199   1.199   1.199   1.199   1.199   1.199   1.199   1.199   1.199   1.199   1.199   1.199   1.199   1.199   1.199   1.199   1.199   1.199   1.199   1.199   1.199   1.199   1.199   1.199   1.199   1.199   1.199   1.199   1.199   1.199   1.199   1.199   1.199   1.199   1.199   1.199   1.199   1.199   1.199   1.199   1.199   1.199   1.199   1.199   1.199   1.199   1.199   1.199   1.199   1.199   1.199   1.199   1.199   1.199   1.199   1.199
   196.55    1.199   1.199   1.199   1.199   1.199   1.199   1.199   1.199   1.199   1.199   1.199   1.199   1.199   1.199   1.199   1.199   1.199   1.199   1.199   1.199   1.199   1.199   1.199   1.199   1.199   1.199   1.199   1.199   1.199   1.199   1.199   1.199   1.199   1.199   1.199   1.199   1.199   1.199   1.199   1.199   1.199   1.199   1.199   1.199   1.199   1.199   1.199   1.199   1.199   1.199   1.199   1.199   1.199   1.199   1.199   1.199   1.199   1.199   1.199   1.199   1.199   1.199   1.199   1.199   1.199   1.199   1.199   1.199   1.199   1.199   1.199   1.199   1.199   1.199   1.199   1.199   1.199   1.199   1.199   1.199   1.199   1.199   1.199   1.199   1.199   1.199   1.199   1.199   1.199   1.199   1.199   1.199   1.199   1.199   1.199   1.199   1.199   1.199   1.199   1.199   1.199   1.199   1.199   1.199   1.199   1.199   1.199   1.199   1.199   1.199   1.199   1.199   1.199   1.199   1.199   1.199   1.199   1.199   1.199   1.199   1.199   1.199   1.199   1.199   1.199   1.199   1.199   1.199   1.199   1.199   1.199   1.199   1.199   1.199   1.199   1.199   1.199   1.199   1.199   1.199   1.199   1.199   1.199   1.199   1.199   1.199   1.199   1.199   1.199   1.199   1.199   1.199   1.199   1.199   1.199   1.199   1.199   1.199   1.199   1.199   1.199   1.199   1.199   1.199   1.199   1.199   1.199   1.199   1.199   1.199   1.199   1.199   1.199   1.199   1.199   1.199   1.199   1.199   1.199   1.199   1.199   1.199   1.199   1.199   1.199   1.199   1.199   1.199   1.199   1.199   1.199   1.199   1.199   1.199   1.199   1.199   1.199   1.199   1.199   1.199
   186.21    1.199   1.199   1.199   1.199   1.199   1.199   1.199   1.199   1.199   1.199   1.199   1.199   1.199   1.199   1.199   1.199   1.199   1.199   1.199   1.199   1.199   1.199   1.199   1.199   1.199   1.199   1.199   1.199   1.199   1.199   1.199   1.199   1.199   1.199   1.199   1.199   1.199   1.199   1.199   1.199   1.199   1.199   1.199   1.199   1.199   1.199   1.199   1.199   1.199   1.199   1.199   1.199   1.199   1.199   1.199   1.199   1.199   1.199   1.199   1.199   1.199   1.199   1.199   1.199   1.199   1.199   1.199   1.199   1.199   1.199   1.199   1.199   1.199   1.199   1.199   1.199   1.199   1.199   1.199   1.199   1.199   1.199   1.199   1.199   1.199   1.199   1.199   1.199   1.199   1.199   1.199   1.199   1.199   1.199   1.199   1.199   1.199   1.199   1.199   1.199   1.199   1.199   1.199   1.199   1.199   1.199   1.199   1.199   1.199   1.199   1.199   1.199   1.199   1.199   1.199   1.199   1.199   1.199   1.199   1.199   1.199   1.199   1.199   1.199   1.199   1.199   1.199   1.199   1.199   1.199   1.199   1.199   1.199   1.199   1.199   1.199   1.199   1.199   1.199   1.199   1.199   1.199   1.199   1.199   1.199   1.199   1.199   1.199   1.199   1.199   1.199   1.199   1.199   1.199   1.199   1.199   1.199   1.199   1.199   1.199   1.199   1.199   1.199   1.199   1.199   1.199   1.199   1.199   1.199   1.199   1.199   1.199   1.199   1.199   1.199   1.199   1.199   1.199   1.199   1.199   1.199   1.199   1.199   1.199   1.199   1.199   1.199   1.199   1.199   1.199   1.199   1.199   1.199   1.199   1.199   1.199   1.199   1.199   1.199   1.199
[...]
   113.79    0.781   0.781   0.781   0.781   0.781   0.781   0.781   0.781   0.781   0.781   0.781   0.781   0.781   0.781   0.781   0.781   0.781   0.781   0.781   0.781   0.781   0.781   0.781   0.781   0.781   0.781   0.781   0.781   0.781   0.781   0.781   0.781   0.781   0.781   0.781   0.781   0.781   0.781   0.781   0.781   0.781   0.781   0.781   0.781   0.781   0.781   0.781   0.781   0.781   0.781   0.781   0.781   0.781   0.781   0.781   0.781   0.781   0.781   0.781   0.781   0.781   0.781   0.781   0.781   0.781   0.781   0.781   0.781   0.781   0.781   0.781   0.781   0.781   0.781   0.781   0.781   0.781   0.781   0.781   0.781   0.781   0.781   0.781   0.781   0.781   0.781   0.781   0.781   0.781   0.781   0.781   0.781   0.781   0.781   0.781   0.781   0.781   0.781   0.781   0.781   0.781   0.781   0.781   0.781   0.781   0.781   0.781   0.781   0.781   0.781   0.781   0.781   0.781   0.781   0.781   0.781   0.781   0.781   0.781   0.781   0.781   0.781   0.781   0.781   0.781   0.781   0.781   0.781   0.781   0.781   0.781   0.781   0.781   0.781   0.781   0.781   0.781   0.781   0.781   0.781   0.781   0.781   0.781   0.781   0.781   0.781   0.781   0.781   0.781   0.781   0.781   0.781   0.781   0.781   0.781   0.781   0.781   0.781   0.781   0.781   0.781   0.781   0.781   0.781   0.781   0.781   0.781   0.781   0.781   0.781   0.781   0.781   0.781   0.781   0.781   0.781   0.781   0.781   0.781   0.781   0.781   0.781   0.781   0.781   0.781   0.781   0.781   0.781   0.781   0.781   0.781   0.781   0.781   0.781   0.781   0.781   0.781   0.781   0.781   0.781
   103.45    0.781   0.781   0.781   0.781   0.781   0.781   0.781   0.781   0.781   0.781   0.781   0.781   0.781   0.781   0.781   0.781   0.781   0.781   0.781   0.781   0.781   0.781   0.781   0.781   0.781   0.781   0.781   0.781   0.781   0.781   0.781   0.781   0.781   0.781   0.781   0.781   0.781   0.781   0.781   0.781   0.781   0.781   0.781   0.781   0.781   0.781   0.781   0.781   0.781   0.781   0.781   0.781   0.781   0.781   0.781   0.781   0.781   0.781   0.781   0.781   0.781   0.781   0.781   0.781   0.781   0.781   0.781   0.781   0.781   0.781   0.781   0.781   0.781   0.781   0.781   0.781   0.781   0.781   0.781   0.781   0.781   0.781   0.781   0.781   0.781   0.781   0.781   0.781   0.781   0.781   0.781   0.781   0.781   0.781   0.781   0.781   0.781   0.781   0.781   0.781   0.781   0.781   0.781   0.781   0.781   0.781   0.781   0.781   0.781   0.781   0.781   0.781   0.781   0.781   0.781   0.781   0.781   0.781   0.781   0.781   0.781   0.781   0.781   0.781   0.781   0.781   0.781   0.781   0.781   0.781   0.781   0.781   0.781   0.781   0.781   0.781   0.781   0.781   0.781   0.781   0.781   0.781   0.781   0.781   0.781   0.781   0.781   0.781   0.781   0.781   0.781   0.781   0.781   0.781   0.781   0.781   0.781   0.781   0.781   0.781   0.781   0.781   0.781   0.781   0.781   0.781   0.781   0.781   0.781   0.781   0.781   0.781   0.781   0.781   0.781   0.781   0.781   0.781   0.781   0.781   0.781   0.781   0.781   0.781   0.781   0.781   0.781   0.781   0.781   0.781   0.781   0.781   0.781   0.781   0.781   0.781   0.781   0.781   0.781   0.781
    93.10    0.781   0.781   0.781   0.781   0.781   0.781   0.781   0.781   0.781   0.781   0.781   0.781   0.781   0.781   0.781   0.781   0.781   0.781   0.781   0.781   0.781   0.781   0.781   0.781   0.781   0.781   0.781   0.781   0.781   0.781   0.781   0.781   0.781   0.781   0.781   0.781   0.781   0.781   0.781   0.781   0.781   0.781   0.781   0.781   0.781   0.781   0.781   0.781   0.781   0.781   0.781   0.781   0.781   0.781   0.781   0.781   0.781   0.781   0.781   0.781   0.781   0.781   0.781   0.781   0.781   0.781   0.781   0.781   0.781   0.781   0.781   0.781   0.781   0.781   0.781   0.781   0.781   0.781   0.781   0.781   0.781   0.781   0.781   0.781   0.781   0.781   0.781   0.781   0.781   0.781   0.781   0.781   0.781   0.781   0.781   0.781   0.781   0.781   0.781   0.781   0.781   0.781   0.781   0.781   0.781   0.781   0.781   0.781   0.781   0.781   0.781   0.781   0.781   0.781   0.781   0.781   0.781   0.781   0.781   0.781   0.781   0.781   0.781   0.781   0.781   0.781   0.781   0.781   0.781   0.781   0.781   0.781   0.781   0.781   0.781   0.781   0.781   0.781   0.781   0.781   0.781   0.781   0.781   0.781   0.781   0.781   0.781   0.781   0.781   0.781   0.781   0.781   0.781   0.781   0.781   0.781   0.781   0.781   0.781   0.781   0.781   0.781   0.781   0.781   0.781   0.781   0.781   0.781   0.781   0.781   0.781   0.781   0.781   0.781   0.781   0.781   0.781   0.781   0.781   0.781   0.781   0.781   0.781   0.781   0.781   0.781   0.781   0.781   0.781   0.781   0.781   0.781   0.781   0.781   0.781   0.781   0.781   0.781   0.781   0.781
    82.76    0.781   0.781   0.781   0.781   0.781   0.781   0.781   0.781   0.781   0.781   0.781   0.781   0.781   0.781   0.781   0.781   0.781   0.781   0.781   0.781   0.781   0.781   0.781   0.781   0.781   0.781   0.781   0.781   0.781   0.781   0.781   0.781   0.781   0.781   0.781   0.781   0.781   0.781   0.781   0.781   0.781   0.781   0.781   0.781   0.781   0.781   0.781   0.781   0.781   0.781   0.781   0.781   0.781   0.781   0.781   0.781   0.781   0.781   0.781   0.781   0.781   0.781   0.781   0.781   0.781   0.781   0.781   0.781   0.781   0.781   0.781   0.781   0.781   0.781   0.781   0.781   0.781   0.781   0.781   0.781   0.781   0.781   0.781   0.781   0.781   0.781   0.781   0.781   0.781   0.781   0.781   0.781   0.781   0.781   0.781   0.781   0.781   0.781   0.781   0.781   0.781   0.781   0.781   0.781   0.781   0.781   0.781   0.781   0.781   0.781   0.781   0.781   0.781   0.781   0.781   0.781   0.781   0.781   0.781   0.781   0.781   0.781   0.781   0.781   0.781   0.781   0.781   0.781   0.781   0.781   0.781   0.781   0.781   0.781   0.781   0.781   0.781   0.781   0.781   0.781   0.781   0.781   0.781   0.781   0.781   0.781   0.781   0.781   0.781   0.781   0.781   0.781   0.781   0.781   0.781   0.781   0.781   0.781   0.781   0.781   0.781   0.781   0.781   0.781   0.781   0.781   0.781   0.781   0.781   0.781   0.781   0.781   0.781   0.781   0.781   0.781   0.781   0.781   0.781   0.781   0.781   0.781   0.781   0.781   0.781   0.781   0.781   0.781   0.781   0.781   0.781   0.781   0.781   0.781   0.781   0.781   0.781   0.781   0.781   0.781
    72.41    0.781   0.781   0.781   0.781   0.781   0.781   0.781   0.781   0.781   0.781   0.781   0.781   0.781   0.781   0.781   0.781   0.781   0.781   0.781   0.781   0.781   0.781   0.781   0.781   0.781   0.781   0.781   0.781   0.781   0.781   0.781   0.781   0.781   0.781   0.781   0.781   0.781   0.781   0.781   0.781   0.781   0.781   0.781   0.781   0.781   0.781   0.781   0.781   0.781   0.781   0.781   0.781   0.781   0.781   0.781   0.781   0.781   0.781   0.781   0.781   0.781   0.781   0.781   0.781   0.781   0.781   0.781   0.781   0.781   0.781   0.781   0.781   0.781   0.781   0.781   0.781   0.781   0.781   0.781   0.781   0.781   0.781   0.781   0.781   0.781   0.781   0.781   0.781   0.781   0.781   0.781   0.781   0.781   0.781   0.781   0.781   0.781   0.781   0.781   0.781   0.781   0.781   0.781   0.781   0.781   0.781   0.781   0.781   0.781   0.781   0.781   0.781   0.781   0.781   0.781   0.781   0.781   0.781   0.781   0.781   0.781   0.781   0.781   0.781   0.781   0.781   0.781   0.781   0.781   0.781   0.781   0.781   0.781   0.781   0.781   0.781   0.781   0.781   0.781   0.781   0.781   0.781   0.781   0.781   0.781   0.781   0.781   0.781   0.781   0.781   0.781   0.781   0.781   0.781   0.781   0.781   0.781   0.781   0.781   0.781   0.781   0.781   0.781   0.781   0.781   0.781   0.781   0.781   0.781   0.781   0.781   0.781   0.781   0.781   0.781   0.781   0.781   0.781   0.781   0.781   0.781   0.781   0.781   0.781   0.781   0.781   0.781   0.781   0.781   0.781   0.781   0.781   0.781   0.781   0.781   0.781   0.781   0.781   0.781   0.781
    62.07    0.781   0.781   0.781   0.781   0.781   0.781   0.781   0.781   0.781   0.781   0.781   0.781   0.781   0.781   0.781   0.781   0.781   0.781   0.781   0.781   0.781   0.781   0.781   0.781   0.781   0.781   0.781   0.781   0.781   0.781   0.781   0.781   0.781   0.781   0.781   0.781   0.781   0.781   0.781   0.781   0.781   0.781   0.781   0.781   0.781   0.781   0.781   0.781   0.781   0.781   0.781   0.781   0.781   0.781   0.781   0.781   0.781   0.781   0.781   0.781   0.781   0.781   0.781   0.781   0.781   0.781   0.781   0.781   0.781   0.781   0.781   0.781   0.781   0.781   0.781   0.781   0.781   0.781   0.781   0.781   0.781   0.781   0.781   0.781   0.781   0.781   0.781   0.781   0.781   0.781   0.781   0.781   0.781   0.781   0.781   0.781   0.781   0.781   0.781   0.781   0.781   0.781   0.781   0.781   0.781   0.781   0.781   0.781   0.781   0.781   0.781   0.781   0.781   0.781   0.781   0.781   0.781   0.781   0.781   0.781   0.781   0.781   0.781   0.781   0.781   0.781   0.781   0.781   0.781   0.781   0.781   0.781   0.781   0.781   0.781   0.781   0.781   0.781   0.781   0.781   0.781   0.781   0.781   0.781   0.781   0.781   0.781   0.781   0.781   0.781   0.781   0.781   0.781   0.781   0.781   0.781   0.781   0.781   0.781   0.781   0.781   0.781   0.781   0.781   0.781   0.781   0.781   0.781   0.781   0.781   0.781   0.781   0.781   0.781   0.781   0.781   0.781   0.781   0.781   0.781   0.781   0.781   0.781   0.781   0.781   0.781   0.781   0.781   0.781   0.781   0.781   0.781   0.781   0.781   0.781   0.781   0.781   0.781   0.781   0.781
    51.72    0.781   0.781   0.781   0.781   0.781   0.781   0.781   0.781   0.781   0.781   0.781   0.781   0.781   0.781   0.781   0.781   0.781   0.781   0.781   0.781   0.781   0.781   0.781   0.781   0.781   0.781   0.781   0.781   0.781   0.781   0.781   0.781   0.781   0.781   0.781   0.781   0.781   0.781   0.781   0.781   0.781   0.781   0.781   0.781   0.781   0.781   0.781   0.781   0.781   0.781   0.781   0.781   0.781   0.781   0.781   0.781   0.781   0.781   0.781   0.781   0.781   0.781   0.781   0.781   0.781   0.781   0.781   0.781   0.781   0.781   0.781   0.781   0.781   0.781   0.781   0.781   0.781   0.781   0.781   0.781   0.781   0.781   0.781   0.781   0.781   0.781   0.781   0.781   0.781   0.781   0.781   0.781   0.781   0.781   0.781   0.781   0.781   0.781   0.781   0.781   0.781   0.781   0.781   0.781   0.781   0.781   0.781   0.781   0.781   0.781   0.781   0.781   0.781   0.781   0.781   0.781   0.781   0.781   0.781   0.781   0.781   0.781   0.781   0.781   0.781   0.781   0.781   0.781   0.781   0.781   0.781   0.781   0.781   0.781   0.781   0.781   0.781   0.781   0.781   0.781   0.781   0.781   0.781   0.781   0.781   0.781   0.781   0.781   0.781   0.781   0.781   0.781   0.781   0.781   0.781   0.781   0.781   0.781   0.781   0.781   0.781   0.781   0.781   0.781   0.781   0.781   0.781   0.781   0.781   0.781   0.781   0.781   0.781   0.781   0.781   0.781   0.781   0.781   0.781   0.781   0.781   0.781   0.781   0.781   0.781   0.781   0.781   0.781   0.781   0.781   0.781   0.781   0.781   0.781   0.781   0.781   0.781   0.781   0.781   0.781
    41.38    0.781   0.781   0.781   0.781   0.781   0.781   0.781   0.781   0.781   0.781   0.781   0.781   0.781   0.781   0.781   0.781   0.781   0.781   0.781   0.781   0.781   0.781   0.781   0.781   0.781   0.781   0.781   0.781   0.781   0.781   0.781   0.781   0.781   0.781   0.781   0.781   0.781   0.781   0.781   0.781   0.781   0.781   0.781   0.781   0.781   0.781   0.781   0.781   0.781   0.781   0.781   0.781   0.781   0.781   0.781   0.781   0.781   0.781   0.781   0.781   0.781   0.781   0.781   0.781   0.781   0.781   0.781   0.781   0.781   0.781   0.781   0.781   0.781   0.781   0.781   0.781   0.781   0.781   0.781   0.781   0.781   0.781   0.781   0.781   0.781   0.781   0.781   0.781   0.781   0.781   0.781   0.781   0.781   0.781   0.781   0.781   0.781   0.781   0.781   0.781   0.781   0.781   0.781   0.781   0.781   0.781   0.781   0.781   0.781   0.781   0.781   0.781   0.781   0.781   0.781   0.781   0.781   0.781   0.781   0.781   0.781   0.781   0.781   0.781   0.781   0.781   0.781   0.781   0.781   0.781   0.781   0.781   0.781   0.781   0.781   0.781   0.781   0.781   0.781   0.781   0.781   0.781   0.781   0.781   0.781   0.781   0.781   0.781   0.781   0.781   0.781   0.781   0.781   0.781   0.781   0.781   0.781   0.781   0.781   0.781   0.781   0.781   0.781   0.781   0.781   0.781   0.781   0.781   0.781   0.781   0.781   0.781   0.781   0.781   0.781   0.781   0.781   0.781   0.781   0.781   0.781   0.781   0.781   0.781   0.781   0.781   0.781   0.781   0.781   0.781   0.781   0.781   0.781   0.781   0.781   0.781   0.781   0.781   0.781   0.781
    31.03    0.781   0.781   0.781   0.781   0.781   0.781   0.781   0.781   0.781   0.781   0.781   0.781   0.781   0.781   0.781   0.781   0.781   0.781   0.781   0.781   0.781   0.781   0.781   0.781   0.781   0.781   0.781   0.781   0.781   0.781   0.781   0.781   0.781   0.781   0.781   0.781   0.781   0.781   0.781   0.781   0.781   0.781   0.781   0.781   0.781   0.781   0.781   0.781   0.781   0.781   0.781   0.781   0.781   0.781   0.781   0.781   0.781   0.781   0.781   0.781   0.781   0.781   0.781   0.781   0.781   0.781   0.781   0.781   0.781   0.781   0.781   0.781   0.781   0.781   0.781   0.781   0.781   0.781   0.781   0.781   0.781   0.781   0.781   0.781   0.781   0.781   0.781   0.781   0.781   0.781   0.781   0.781   0.781   0.781   0.781   0.781   0.781   0.781   0.781   0.781   0.781   0.781   0.781   0.781   0.781   0.781   0.781   0.781   0.781   0.781   0.781   0.781   0.781   0.781   0.781   0.781   0.781   0.781   0.781   0.781   0.781   0.781   0.781   0.781   0.781   0.781   0.781   0.781   0.781   0.781   0.781   0.781   0.781   0.781   0.781   0.781   0.781   0.781   0.781   0.781   0.781   0.781   0.781   0.781   0.781   0.781   0.781   0.781   0.781   0.781   0.781   0.781   0.781   0.781   0.781   0.781   0.781   0.781   0.781   0.781   0.781   0.781   0.781   0.781   0.781   0.781   0.781   0.781   0.781   0.781   0.781   0.781   0.781   0.781   0.781   0.781   0.781   0.781   0.781   0.781   0.781   0.781   0.781   0.781   0.781   0.781   0.781   0.781   0.781   0.781   0.781   0.781   0.781   0.781   0.781   0.781   0.781   0.781   0.781   0.781
    20.69    0.781   0.781   0.781   0.781   0.781   0.781   0.781   0.781   0.781   0.781   0.781   0.781   0.781   0.781   0.781   0.781   0.781   0.781   0.781   0.781   0.781   0.781   0.781   0.781   0.781   0.781   0.781   0.781   0.781   0.781   0.781   0.781   0.781   0.781   0.781   0.781   0.781   0.781   0.781   0.781   0.781   0.781   0.781   0.781   0.781   0.781   0.781   0.781   0.781   0.781   0.781   0.781   0.781   0.781   0.781   0.781   0.781   0.781   0.781   0.781   0.781   0.781   0.781   0.781   0.781   0.781   0.781   0.781   0.781   0.781   0.781   0.781   0.781   0.781   0.781   0.781   0.781   0.781   0.781   0.781   0.781   0.781   0.781   0.781   0.781   0.781   0.781   0.781   0.781   0.781   0.781   0.781   0.781   0.781   0.781   0.781   0.781   0.781   0.781   0.781   0.781   0.781   0.781   0.781   0.781   0.781   0.781   0.781   0.781   0.781   0.781   0.781   0.781   0.781   0.781   0.781   0.781   0.781   0.781   0.781   0.781   0.781   0.781   0.781   0.781   0.781   0.781   0.781   0.781   0.781   0.781   0.781   0.781   0.781   0.781   0.781   0.781   0.781   0.781   0.781   0.781   0.781   0.781   0.781   0.781   0.781   0.781   0.781   0.781   0.781   0.781   0.781   0.781   0.781   0.781   0.781   0.781   0.781   0.781   0.781   0.781   0.781   0.781   0.781   0.781   0.781   0.781   0.781   0.781   0.781   0.781   0.781   0.781   0.781   0.781   0.781   0.781   0.781   0.781   0.781   0.781   0.781   0.781   0.781   0.781   0.781   0.781   0.781   0.781   0.781   0.781   0.781   0.781   0.781   0.781   0.781   0.781   0.781   0.781   0.781
    10.34    0.781   0.781   0.781   0.781   0.781   0.781   0.781   0.781   0.781   0.781   0.781   0.781   0.781   0.781   0.781   0.781   0.781   0.781   0.781   0.781   0.781   0.781   0.781   0.781   0.781   0.781   0.781   0.781   0.781   0.781   0.781   0.781   0.781   0.781   0.781   0.781   0.781   0.781   0.781   0.781   0.781   0.781   0.781   0.781   0.781   0.781   0.781   0.781   0.781   0.781   0.781   0.781   0.781   0.781   0.781   0.781   0.781   0.781   0.781   0.781   0.781   0.781   0.781   0.781   0.781   0.781   0.781   0.781   0.781   0.781   0.781   0.781   0.781   0.781   0.781   0.781   0.781   0.781   0.781   0.781   0.781   0.781   0.781   0.781   0.781   0.781   0.781   0.781   0.781   0.781   0.781   0.781   0.781   0.781   0.781   0.781   0.781   0.781   0.781   0.781   0.781   0.781   0.781   0.781   0.781   0.781   0.781   0.781   0.781   0.781   0.781   0.781   0.781   0.781   0.781   0.781   0.781   0.781   0.781   0.781   0.781   0.781   0.781   0.781   0.781   0.781   0.781   0.781   0.781   0.781   0.781   0.781   0.781   0.781   0.781   0.781   0.781   0.781   0.781   0.781   0.781   0.781   0.781   0.781   0.781   0.781   0.781   0.781   0.781   0.781   0.781   0.781   0.781   0.781   0.781   0.781   0.781   0.781   0.781   0.781   0.781   0.781   0.781   0.781   0.781   0.781   0.781   0.781   0.781   0.781   0.781   0.781   0.781   0.781   0.781   0.781   0.781   0.781   0.781   0.781   0.781   0.781   0.781   0.781   0.781   0.781   0.781   0.781   0.781   0.781   0.781   0.781   0.781   0.781   0.781   0.781   0.781   0.781   0.781   0.781
     0.00    0.781   0.781   0.781   0.781   0.781   0.781   0.781   0.781   0.781   0.781   0.781   0.781   0.781   0.781   0.781   0.781   0.781   0.781   0.781   0.781   0.781   0.781   0.781   0.781   0.781   0.781   0.781   0.781   0.781   0.781   0.781   0.781   0.781   0.781   0.781   0.781   0.781   0.781   0.781   0.781   0.781   0.781   0.781   0.781   0.781   0.781   0.781   0.781   0.781   0.781   0.781   0.781   0.781   0.781   0.781   0.781   0.781   0.781   0.781   0.781   0.781   0.781   0.781   0.781   0.781   0.781   0.781   0.781   0.781   0.781   0.781   0.781   0.781   0.781   0.781   0.781   0.781   0.781   0.781   0.781   0.781   0.781   0.781   0.781   0.781   0.781   0.781   0.781   0.781   0.781   0.781   0.781   0.781   0.781   0.781   0.781   0.781   0.781   0.781   0.781   0.781   0.781   0.781   0.781   0.781   0.781   0.781   0.781   0.781   0.781   0.781   0.781   0.781   0.781   0.781   0.781   0.781   0.781   0.781   0.781   0.781   0.781   0.781   0.781   0.781   0.781   0.781   0.781   0.781   0.781   0.781   0.781   0.781   0.781   0.781   0.781   0.781   0.781   0.781   0.781   0.781   0.781   0.781   0.781   0.781   0.781   0.781   0.781   0.781   0.781   0.781   0.781   0.781   0.781   0.781   0.781   0.781   0.781   0.781   0.781   0.781   0.781   0.781   0.781   0.781   0.781   0.781   0.781   0.781   0.781   0.781   0.781   0.781   0.781   0.781   0.781   0.781   0.781   0.781   0.781   0.781   0.781   0.781   0.781   0.781   0.781   0.781   0.781   0.781   0.781   0.781   0.781   0.781   0.781   0.781   0.781   0.781   0.781   0.781   0.781

   Mean standard deviation across all grid points:
      u component:    1.249 m/s
      v component:    1.199 m/s
      w component:    0.781 m/s


U-component (X) statistics from the interpolated hub point:

   Mean =   7.6768 m/s
   TI   =  20.7654 %


Processing complete.  85.484 CPU seconds used.
