
This summary file was generated by TurbSim (from OpenFAST-v4.1.2) on 19-Feb-2026 at 12:47:15.


Runtime Options:

**********  Random seed #1
    RANLUX  Type of random number generator
         F  Output binary HH turbulence parameters?
         F  Output formatted turbulence parameters?
         F  Output AeroDyn HH files?
         T  Output AeroDyn FF files?
         F  Output BLADED FF files?
         F  Output tower data?
         F  Output HAWC FF files?
         T  Output formatted FF files?
         F  Output coherent turbulence time step file?
 0 -  NONE  IEC turbulence models scaled to exact specified standard deviation


Turbine/Model Specifications:

        50  Vertical grid-point matrix dimension
       500  Horizontal grid-point matrix dimension
     1.000  Time step [seconds]
    90.000  Analysis time [seconds]
    90.000  Usable output time [seconds]
   125.000  Hub height [m]
   250.000  Grid height [m]
  2500.000  Grid width [m]
     0.000  Vertical flow angle [degrees]
   -10.000  Horizontal flow angle [degrees]


Meteorological Boundary Conditions:

    IECKAI  IEC Kaimal spectral model
         1  IEC standard: IEC 61400-1 Ed. 3: 2005
         A  IEC turbulence characteristic
       NTM  IEC Normal Turbulence Model
       N/A  IEC Extreme Turbulence Model (ETM) "c" parameter [m/s]
       PL   Wind profile type
    90.000  Reference height [m]
     7.000  Reference wind speed [m/s]
       N/A  Jet height [m]
     0.200  Power law exponent
     0.030  Surface roughness length [m]


Non-IEC Meteorological Boundary Conditions:

       N/A  Site latitude [degrees]
       N/A  Gradient Richardson number
       N/A  Friction or shear velocity [m/s]
       N/A  Mixing layer depth [m]
       N/A  Mean hub u'w' Reynolds stress
       N/A  Mean hub u'v' Reynolds stress
       N/A  Mean hub v'w' Reynolds stress


Spatial Coherence Models:

       IEC  u-component coherence model
      NONE  v-component coherence model
      NONE  w-component coherence model
(   12.000, 0.353E-03)  u-component coherence parameters
                   N/A  v-component coherence parameters
                   N/A  w-component coherence parameters
       N/A  Coherence exponent


You have requested that the following file(s) be generated:

   Generator_Ambient/TurbSim1.bts (AeroDyn/TurbSim full-field wind file)
   Generator_Ambient/TurbSim1.u (formatted full-field U-component file)
   Generator_Ambient/TurbSim1.v (formatted full-field V-component file)
   Generator_Ambient/TurbSim1.w (formatted full-field W-component file)


Turbulence Simulation Scaling Parameter Summary:

   Turbulence model used                            =  IEC Kaimal
   Turbulence characteristic                        =  A
   IEC turbulence type                              =  Normal Turbulence Model
   IEC standard                                     =  IEC 61400-1 Ed. 3: 2005
   Mean wind speed at hub height                    =    7.475 m/s
   Expected value of turbulence intensity at 15 m/s =   16.000%
   Characteristic value of standard deviation       =    1.793 m/s
   Turbulence scale                                 =   42.000 m
   u-component integral scale                       =  340.200 m
   Coherency scale                                  =  340.200 m
   Characteristic value of hub turbulence intensity =   23.986%
   Gradient Richardson number                       =    0.000

   Wind profile type                                =  Power law
   Power law exponent                               =    0.200
   Mean shear across rotor disk                     =    0.034 (m/s)/m
   Assumed rotor diameter                           =  250.000 m
   Surface roughness length                         =    0.030 m

   Nyquist frequency of turbulent wind field        =    0.500 Hz

   Number of time steps in the FFT                  =       90
   Number of time steps output                      =       90
   Number of points simulated                       =    25001


Mean Flow Angles:

   Vertical   =   0.0 degrees
   Horizontal = -10.0 degrees

Mean Wind Speed Profile:

   Height    Wind Speed   Horizontal Angle  Vertical Angle  U-comp (X)   V-comp (Y)   W-comp (Z)
     (m)        (m/s)         (degrees)       (degrees)       (m/s)        (m/s)        (m/s)   
   ------    ----------   ----------------  --------------  ----------   ----------   ----------
    250.0        8.59          -10.00            0.00          8.46        -1.49         0.00
    244.9        8.55          -10.00            0.00          8.42        -1.48         0.00
    239.8        8.52          -10.00            0.00          8.39        -1.48         0.00
    234.7        8.48          -10.00            0.00          8.35        -1.47         0.00
    229.6        8.44          -10.00            0.00          8.31        -1.47         0.00
    224.5        8.40          -10.00            0.00          8.28        -1.46         0.00
    219.4        8.37          -10.00            0.00          8.24        -1.45         0.00
    214.3        8.33          -10.00            0.00          8.20        -1.45         0.00
    209.2        8.29          -10.00            0.00          8.16        -1.44         0.00
    204.1        8.25          -10.00            0.00          8.12        -1.43         0.00
    199.0        8.20          -10.00            0.00          8.08        -1.42         0.00
    193.9        8.16          -10.00            0.00          8.04        -1.42         0.00
    188.8        8.12          -10.00            0.00          7.99        -1.41         0.00
    183.7        8.07          -10.00            0.00          7.95        -1.40         0.00
    178.6        8.03          -10.00            0.00          7.91        -1.39         0.00
    173.5        7.98          -10.00            0.00          7.86        -1.39         0.00
    168.4        7.93          -10.00            0.00          7.81        -1.38         0.00
    163.3        7.89          -10.00            0.00          7.77        -1.37         0.00
    158.2        7.84          -10.00            0.00          7.72        -1.36         0.00
    153.1        7.78          -10.00            0.00          7.67        -1.35         0.00
    148.0        7.73          -10.00            0.00          7.61        -1.34         0.00
    142.9        7.68          -10.00            0.00          7.56        -1.33         0.00
    137.8        7.62          -10.00            0.00          7.51        -1.32         0.00
    132.7        7.56          -10.00            0.00          7.45        -1.31         0.00
    127.6        7.51          -10.00            0.00          7.39        -1.30         0.00
    125.0        7.48          -10.00            0.00          7.36        -1.30         0.00
    122.4        7.44          -10.00            0.00          7.33        -1.29         0.00
    117.3        7.38          -10.00            0.00          7.27        -1.28         0.00
    112.2        7.32          -10.00            0.00          7.21        -1.27         0.00
    107.1        7.25          -10.00            0.00          7.14        -1.26         0.00
    102.0        7.18          -10.00            0.00          7.07        -1.25         0.00
     96.9        7.10          -10.00            0.00          7.00        -1.23         0.00
     91.8        7.03          -10.00            0.00          6.92        -1.22         0.00
     86.7        6.95          -10.00            0.00          6.84        -1.21         0.00
     81.6        6.86          -10.00            0.00          6.76        -1.19         0.00
     76.5        6.78          -10.00            0.00          6.67        -1.18         0.00
     71.4        6.68          -10.00            0.00          6.58        -1.16         0.00
     66.3        6.59          -10.00            0.00          6.49        -1.14         0.00
     61.2        6.48          -10.00            0.00          6.38        -1.13         0.00
     56.1        6.37          -10.00            0.00          6.27        -1.11         0.00
     51.0        6.25          -10.00            0.00          6.15        -1.09         0.00
     45.9        6.12          -10.00            0.00          6.03        -1.06         0.00
     40.8        5.98          -10.00            0.00          5.89        -1.04         0.00
     35.7        5.82          -10.00            0.00          5.73        -1.01         0.00
     30.6        5.64          -10.00            0.00          5.56        -0.98         0.00
     25.5        5.44          -10.00            0.00          5.36        -0.94         0.00
     20.4        5.20          -10.00            0.00          5.12        -0.90         0.00
     15.3        4.91          -10.00            0.00          4.84        -0.85         0.00
     10.2        4.53          -10.00            0.00          4.46        -0.79         0.00
      5.1        3.94          -10.00            0.00          3.88        -0.68         0.00
      0.0        0.45          -10.00            0.00          0.44        -0.08         0.00


Harvested Random Seeds after Generation of the Random Numbers:

     31360505 K 1
            0 K 2


Hub-Height Simulated Turbulence Statistical Summary:

   Type of Wind        Min (m/s)   Mean (m/s)    Max (m/s)  Sigma (m/s)       TI (%)
   ----------------    ---------   ----------    ---------  -----------       ------
   Longitudinal (u)         4.95         7.48        10.42        1.428       19.097
   Lateral (v)             -2.78         0.00         2.65        1.173       15.696
   Vertical (w)            -2.05         0.00         2.16        0.767       10.264
   U component              4.92         7.36        10.60        1.497       20.336
   V component             -4.00        -1.30         0.86        1.083       14.714
   W component             -2.05         0.00         2.16        0.767       10.422
   Horizontal (U&V)         4.96         7.56        10.60        1.459       19.296
   Total                    5.01         7.60        10.60        1.440       18.934

                       Min Reynolds     Mean Reynolds    Max Reynolds    Correlation
   Product             Stress (m/s)^2   Stress (m/s)^2   Stress (m/s)^2  Coefficient
   ----------------    --------------   --------------   --------------  -----------
   u'w'                     -2.514            -0.035             3.941        -0.032
   u'v'                     -2.516             0.653             6.967         0.390
   v'w'                     -2.237            -0.003             2.469        -0.004


   Friction Velocity (Ustar)  =      0.188 m/s
   Maximum Instantaneous TKE  =      7.238 (m/s)^2
   Maximum Instantaneous CTKE =      3.744 (m/s)^2


Grid Point Variance Summary:

   Y-coord-1250.00-1244.99-1239.98-1234.97-1229.96-1224.95-1219.94-1214.93-1209.92-1204.91-1199.90-1194.89-1189.88-1184.87-1179.86-1174.85-1169.84-1164.83-1159.82-1154.81-1149.80-1144.79-1139.78-1134.77-1129.76-1124.75-1119.74-1114.73-1109.72-1104.71-1099.70-1094.69-1089.68-1084.67-1079.66-1074.65-1069.64-1064.63-1059.62-1054.61-1049.60-1044.59-1039.58-1034.57-1029.56-1024.55-1019.54-1014.53-1009.52-1004.51 -999.50 -994.49 -989.48 -984.47 -979.46 -974.45 -969.44 -964.43 -959.42 -954.41 -949.40 -944.39 -939.38 -934.37 -929.36 -924.35 -919.34 -914.33 -909.32 -904.31 -899.30 -894.29 -889.28 -884.27 -879.26 -874.25 -869.24 -864.23 -859.22 -854.21 -849.20 -844.19 -839.18 -834.17 -829.16 -824.15 -819.14 -814.13 -809.12 -804.11 -799.10 -794.09 -789.08 -784.07 -779.06 -774.05 -769.04 -764.03 -759.02 -754.01 -749.00 -743.99 -738.98 -733.97 -728.96 -723.95 -718.94 -713.93 -708.92 -703.91 -698.90 -693.89 -688.88 -683.87 -678.86 -673.85 -668.84 -663.83 -658.82 -653.81 -648.80 -643.79 -638.78 -633.77 -628.76 -623.75 -618.74 -613.73 -608.72 -603.71 -598.70 -593.69 -588.68 -583.67 -578.66 -573.65 -568.64 -563.63 -558.62 -553.61 -548.60 -543.59 -538.58 -533.57 -528.56 -523.55 -518.54 -513.53 -508.52 -503.51 -498.50 -493.49 -488.48 -483.47 -478.46 -473.45 -468.44 -463.43 -458.42 -453.41 -448.40 -443.39 -438.38 -433.37 -428.36 -423.35 -418.34 -413.33 -408.32 -403.31 -398.30 -393.29 -388.28 -383.27 -378.26 -373.25 -368.24 -363.23 -358.22 -353.21 -348.20 -343.19 -338.18 -333.17 -328.16 -323.15 -318.14 -313.13 -308.12 -303.11 -298.10 -293.09 -288.08 -283.07 -278.06 -273.05 -268.04 -263.03 -258.02 -253.01 -248.00 -242.99 -237.98 -232.97 -227.96 -222.95 -217.94 -212.93 -207.92 -202.91 -197.90 -192.89 -187.88 -182.87 -177.86 -172.85 -167.84 -162.83 -157.82 -152.81 -147.80 -142.79 -137.78 -132.77 -127.76 -122.75 -117.74 -112.73 -107.72 -102.71  -97.70  -92.69  -87.68  -82.67  -77.66  -72.65  -67.64  -62.63  -57.62  -52.61  -47.60  -42.59  -37.58  -32.57  -27.56  -22.55  -17.54  -12.53   -7.52   -2.51    2.51    7.52   12.53   17.54   22.55   27.56   32.57   37.58   42.59   47.60   52.61   57.62   62.63   67.64   72.65   77.66   82.67   87.68   92.69   97.70  102.71  107.72  112.73  117.74  122.75  127.76  132.77  137.78  142.79  147.80  152.81  157.82  162.83  167.84  172.85  177.86  182.87  187.88  192.89  197.90  202.91  207.92  212.93  217.94  222.95  227.96  232.97  237.98  242.99  248.00  253.01  258.02  263.03  268.04  273.05  278.06  283.07  288.08  293.09  298.10  303.11  308.12  313.13  318.14  323.15  328.16  333.17  338.18  343.19  348.20  353.21  358.22  363.23  368.24  373.25  378.26  383.27  388.28  393.29  398.30  403.31  408.32  413.33  418.34  423.35  428.36  433.37  438.38  443.39  448.40  453.41  458.42  463.43  468.44  473.45  478.46  483.47  488.48  493.49  498.50  503.51  508.52  513.53  518.54  523.55  528.56  533.57  538.58  543.59  548.60  553.61  558.62  563.63  568.64  573.65  578.66  583.67  588.68  593.69  598.70  603.71  608.72  613.73  618.74  623.75  628.76  633.77  638.78  643.79  648.80  653.81  658.82  663.83  668.84  673.85  678.86  683.87  688.88  693.89  698.90  703.91  708.92  713.93  718.94  723.95  728.96  733.97  738.98  743.99  749.00  754.01  759.02  764.03  769.04  774.05  779.06  784.07  789.08  794.09  799.10  804.11  809.12  814.13  819.14  824.15  829.16  834.17  839.18  844.19  849.20  854.21  859.22  864.23  869.24  874.25  879.26  884.27  889.28  894.29  899.30  904.31  909.32  914.33  919.34  924.35  929.36  934.37  939.38  944.39  949.40  954.41  959.42  964.43  969.44  974.45  979.46  984.47  989.48  994.49  999.50 1004.51 1009.52 1014.53 1019.54 1024.55 1029.56 1034.57 1039.58 1044.59 1049.60 1054.61 1059.62 1064.63 1069.64 1074.65 1079.66 1084.67 1089.68 1094.69 1099.70 1104.71 1109.72 1114.73 1119.74 1124.75 1129.76 1134.77 1139.78 1144.79 1149.80 1154.81 1159.82 1164.83 1169.84 1174.85 1179.86 1184.87 1189.88 1194.89 1199.90 1204.91 1209.92 1214.93 1219.94 1224.95 1229.96 1234.97 1239.98 1244.99 1250.00

   Height   Standard deviation at grid points for the u component:
   250.00    1.197   1.168   1.480   1.169   1.189   1.249   0.984   0.734   0.803   0.996   1.020   1.009   0.884   1.082   0.963   1.127   1.105   1.248   0.842   1.036   1.001   0.974   0.967   0.988   1.007   1.099   1.012   1.279   1.471   1.376   1.217   1.300   1.492   1.535   1.522   1.446   1.199   1.238   1.143   0.812   1.085   1.032   0.909   0.798   0.802   0.957   1.007   1.136   1.308   1.300   1.530   1.414   1.374   1.556   1.431   1.735   1.611   1.702   1.809   1.861   1.854   1.806   1.546   1.176   1.356   1.212   1.406   1.179   1.088   1.415   1.584   1.552   1.692   1.910   1.923   2.212   2.268   2.368   2.060   2.147   2.168   2.150   2.007   1.649   1.521   1.665   1.499   1.788   1.765   1.506   1.722   1.507   1.447   1.483   1.275   1.388   1.383   1.297   1.218   1.072   1.205   1.266   1.486   1.360   1.260   1.194   1.025   1.037   1.034   1.185   1.299   1.067   0.920   1.006   0.960   0.940   0.866   0.986   0.993   1.169   1.296   1.183   1.194   1.403   1.276   0.960   0.733   1.029   1.001   0.819   0.918   0.961   0.759   0.741   0.857   1.121   1.095   1.170   1.274   1.301   1.266   1.271   1.120   1.150   1.228   0.861   1.114   0.842   1.162   1.116   1.240   0.809   0.962   1.125   1.080   0.935   1.094   0.976   1.100   1.250   1.248   1.115   1.128   1.323   1.078   0.823   1.135   1.226   1.444   1.536   1.378   1.555   1.863   1.802   1.816   1.582   1.426   1.212   1.056   1.294   1.191   1.017   1.047   1.128   1.206   1.176   0.947   0.939   1.033   0.920   0.970   1.328   1.192   0.980   1.098   1.016   0.998   1.038   0.969   1.027   0.930   0.850   0.759   0.847   0.723   0.910   1.075   1.136   1.233   1.235   1.386   1.742   2.034   2.023   1.527   1.416   1.731   1.695   1.423   1.349   1.261   1.419   1.364   1.210   1.312   1.277   1.281   1.435   1.148   1.217   1.158   1.006   0.938   0.929   0.831   1.142   1.218   1.124   0.923   1.073   1.224   1.003   0.826   0.949   0.929   0.902   0.887   0.972   0.968   1.077   1.291   1.343   1.164   1.138   0.854   1.108   1.163   1.117   1.125   1.080   1.082   1.485   1.736   1.842   1.793   1.731   1.618   1.669   1.506   1.286   0.994   0.959   0.980   0.856   0.948   0.882   0.913   0.928   0.766   0.733   0.713   0.811   0.924   1.039   0.855   1.090   0.973   0.887   0.876   0.761   0.873   0.976   1.021   1.016   1.161   1.171   1.108   1.236   1.092   0.965   0.935   0.906   1.160   1.329   1.440   1.514   1.306   1.305   1.078   1.390   1.541   1.122   1.073   1.215   1.064   1.282   1.199   1.269   1.355   1.054   1.054   0.968   1.088   0.987   0.741   1.046   1.021   1.145   0.871   1.030   0.900   0.955   0.872   1.033   1.171   1.266   1.077   1.175   1.323   1.140   1.115   1.232   1.015   1.126   1.071   1.257   1.232   1.654   1.723   1.510   1.134   1.046   1.112   1.236   1.483   1.356   1.532   1.305   1.311   1.538   1.642   1.778   1.542   1.631   1.674   1.971   1.603   1.763   1.352   1.494   1.514   1.338   1.247   1.017   0.953   1.085   1.275   1.065   1.083   1.427   1.160   1.010   1.468   1.423   1.640   1.530   1.833   1.409   1.237   1.382   1.251   1.215   1.344   1.337   1.405   1.296   1.030   1.061   1.063   1.279   1.087   1.188   1.152   1.002   0.965   1.197   1.105   1.138   0.769   1.030   1.035   0.913   1.174   1.293   1.118   1.086   1.422   1.247   1.302   1.049   0.828   0.933   1.110   0.805   1.208   1.159   1.542   1.313   1.231   1.726   1.900   1.835   1.629   1.525   1.591   1.144   0.887   0.999   1.013   1.080   0.986   0.918   1.005   1.032   0.999   1.132   0.862   0.925   0.894   0.881   0.928   0.890   1.303   1.418   1.494   1.403   1.142   1.346   1.475   1.054   1.063   0.794   0.775   0.906   1.122   1.094   1.259   1.138   1.199   1.179   1.019   1.161   1.242   1.266   1.559   1.398   1.376   1.342   1.001   0.814   1.104   1.070   1.390   1.558   1.862   1.799   1.506   1.635   1.697   1.526   1.414   1.565   1.257   0.996   0.876   0.891   0.907   1.056   0.903   1.099
   244.90    1.181   1.373   1.528   1.616   1.273   1.267   1.042   1.021   0.860   1.021   0.951   1.061   1.034   0.961   1.036   0.891   0.794   0.891   0.970   0.878   0.856   0.828   0.940   1.219   1.153   1.036   1.113   1.146   1.421   1.380   1.164   1.137   1.226   1.192   1.120   1.050   0.903   0.984   0.893   0.935   1.046   0.867   0.911   1.120   0.934   0.829   1.213   1.204   1.264   1.549   1.672   1.438   1.059   1.222   1.458   1.529   1.705   1.761   1.679   1.586   1.660   1.562   1.556   1.297   1.339   1.168   1.188   1.000   1.029   1.172   1.194   1.485   1.733   1.639   1.748   1.982   2.208   2.156   1.874   2.123   1.991   1.850   1.783   1.762   1.930   1.692   1.715   1.596   1.605   1.450   1.682   1.697   1.747   1.614   1.373   1.101   1.278   1.160   1.226   1.025   1.209   1.328   1.512   1.061   1.032   1.111   1.204   1.065   1.033   1.244   1.124   1.264   1.202   1.111   1.107   0.919   0.836   0.838   1.008   1.101   1.072   1.280   1.498   1.460   1.247   1.165   1.077   1.155   0.940   0.924   0.834   0.875   0.766   0.840   0.878   1.116   1.138   1.128   1.144   1.148   1.186   1.202   1.319   1.031   0.976   1.102   1.143   1.042   0.919   0.897   0.809   0.887   0.875   0.886   1.154   1.008   0.998   1.194   1.273   1.052   1.151   1.268   1.140   1.204   1.040   0.870   1.018   1.197   1.266   1.320   1.399   1.669   1.660   1.743   1.627   1.340   1.173   1.175   1.014   1.101   1.025   0.887   1.024   1.197   1.118   1.116   0.924   0.885   0.959   0.821   1.050   1.147   1.325   1.179   1.039   1.052   1.091   1.070   1.046   1.080   1.068   0.818   0.717   0.871   0.764   1.133   1.124   1.309   1.370   1.458   1.350   1.487   1.838   1.964   1.591   1.376   1.524   1.689   1.801   1.520   1.351   1.227   1.154   1.091   1.134   1.268   1.198   1.061   0.881   1.206   1.401   1.107   0.982   1.057   1.035   1.102   1.124   1.341   1.448   1.291   0.988   0.843   0.808   1.040   1.030   0.987   0.903   0.926   0.787   0.902   1.040   1.195   1.125   0.987   1.067   1.005   0.978   0.989   0.975   1.037   1.039   1.262   1.456   1.564   1.719   1.641   1.495   1.465   1.529   1.354   1.212   1.011   0.856   0.979   1.016   0.937   0.862   0.835   1.030   0.840   0.852   0.880   0.849   1.048   1.245   1.304   1.034   1.058   0.859   0.928   0.936   0.847   1.044   1.081   1.035   1.092   1.047   1.075   1.086   0.883   1.077   0.998   1.146   1.360   1.305   1.311   1.358   1.352   1.319   1.523   1.446   1.316   1.372   1.249   1.221   1.047   1.070   1.267   1.343   1.023   0.995   1.085   1.150   1.097   1.069   1.169   1.178   1.039   0.907   0.967   1.162   0.955   1.083   1.241   1.119   1.156   1.069   1.175   1.174   1.254   0.826   0.989   0.960   1.257   1.259   1.444   1.611   1.621   1.594   1.192   1.106   0.920   1.067   1.097   1.314   1.500   1.320   1.260   1.372   1.206   1.415   1.502   1.466   1.599   1.623   1.795   1.841   1.713   1.492   1.374   1.224   1.368   1.094   1.164   1.110   1.288   1.379   1.257   0.988   1.254   1.281   1.181   1.353   1.712   1.620   1.868   1.715   1.465   1.468   1.378   1.241   1.211   1.025   1.216   1.385   1.121   0.968   0.909   1.127   1.256   1.180   1.176   1.078   0.940   1.058   1.035   1.291   1.293   0.956   1.212   1.094   1.019   1.244   1.065   1.234   1.193   1.213   1.497   1.187   0.998   0.729   0.917   1.001   0.966   1.297   1.310   1.359   1.344   1.444   1.682   1.782   1.772   1.382   1.074   1.237   1.197   1.263   1.002   0.972   1.117   1.088   1.034   1.047   0.857   1.037   0.984   1.186   0.998   0.892   0.855   0.805   1.156   1.458   1.412   1.308   1.203   1.385   1.529   1.357   1.221   1.074   0.834   0.788   0.751   0.955   1.072   1.158   1.086   1.277   1.315   1.013   0.983   1.276   1.301   1.477   1.461   1.324   1.245   1.019   1.092   1.081   1.252   1.592   1.270   1.592   1.436   1.598   1.529   1.426   1.829   1.820   1.539   1.208   1.142   0.824   0.962   1.091   1.095   0.910   1.008
   239.80    0.920   1.056   1.419   1.575   1.348   1.270   1.276   1.225   1.061   0.970   1.122   1.100   1.009   0.845   0.832   0.804   0.749   0.808   0.703   0.727   0.816   0.845   0.859   1.260   1.425   1.132   1.023   1.137   1.233   1.401   1.339   1.328   1.243   1.101   1.119   0.944   0.806   0.749   0.855   0.800   0.976   0.885   1.029   0.981   0.881   0.886   1.125   1.289   1.514   1.581   1.504   1.118   1.061   1.132   1.573   1.541   1.938   2.042   1.625   1.700   1.414   1.612   1.343   1.169   1.181   0.950   1.111   1.078   1.161   1.125   1.142   1.311   1.629   1.439   1.802   1.946   2.071   2.040   2.153   1.948   2.020   2.054   1.802   1.951   1.817   1.811   1.909   1.836   1.487   1.656   1.610   1.850   1.482   1.218   1.165   1.219   1.363   1.119   0.904   1.076   1.360   1.246   1.305   1.084   1.106   1.034   1.114   0.909   1.181   1.328   1.357   1.240   1.154   1.258   1.148   0.959   0.838   0.828   0.998   1.093   1.212   1.327   1.415   1.438   1.196   1.129   0.967   0.912   0.796   0.857   0.794   0.819   0.826   0.854   1.088   1.091   1.097   0.925   0.960   1.271   1.386   1.213   1.436   1.244   1.281   1.275   1.113   1.005   0.954   0.805   0.853   0.768   0.931   0.930   0.864   0.999   1.152   1.112   1.399   1.103   1.109   1.173   1.194   1.005   0.999   0.789   0.866   1.021   1.005   1.209   1.474   1.382   1.692   1.548   1.221   1.306   1.245   1.118   1.210   1.155   0.891   1.039   0.962   1.045   0.889   1.095   0.976   1.014   0.819   0.759   1.024   1.237   1.372   1.448   1.399   1.119   1.132   1.143   0.961   1.048   0.956   0.811   0.865   0.909   0.913   0.968   1.189   1.471   1.302   1.492   1.224   1.101   1.658   1.645   1.680   1.775   1.575   1.434   1.680   1.793   1.625   1.298   1.100   0.954   1.149   0.973   0.916   0.941   0.959   1.197   1.210   1.123   0.908   1.070   0.785   0.969   0.974   1.324   0.947   1.218   0.960   1.056   0.829   0.992   1.177   0.947   0.790   0.839   0.860   0.858   0.973   0.941   1.021   1.061   0.856   0.874   1.148   1.073   1.004   0.770   1.131   1.165   1.334   1.393   1.348   1.550   1.468   1.670   1.407   1.350   1.225   1.349   1.184   0.995   1.054   0.905   0.901   0.965   1.112   1.123   1.001   1.063   1.094   1.249   1.506   1.538   1.477   1.072   0.896   1.024   0.960   0.990   0.948   1.001   1.087   1.030   1.080   1.164   1.118   1.012   0.980   1.010   1.368   1.042   1.370   1.206   1.213   1.283   1.449   1.433   1.336   1.449   1.366   1.348   1.192   1.014   0.847   0.944   1.155   1.030   1.072   1.034   1.247   1.071   1.117   1.371   1.323   1.256   1.006   0.896   1.298   1.200   1.010   1.036   1.154   1.224   1.283   0.959   1.133   1.096   1.058   0.929   1.257   1.105   1.496   1.234   1.424   1.376   1.205   1.316   1.214   0.913   1.002   1.211   1.241   1.281   1.260   1.211   1.083   1.204   1.399   1.587   1.544   1.503   1.636   1.649   1.619   1.719   1.560   1.635   1.402   1.365   0.969   1.024   0.911   1.115   1.384   1.187   1.235   1.344   1.312   1.259   1.223   1.510   1.688   1.760   1.781   1.795   1.798   1.435   1.333   1.199   1.200   1.360   1.415   1.247   0.825   0.800   0.997   0.880   1.149   1.150   1.160   1.240   1.024   1.024   1.235   1.214   1.090   1.145   1.114   0.884   1.044   1.202   1.165   1.268   1.506   1.533   1.350   1.021   1.027   0.921   0.780   0.931   1.197   1.501   1.159   1.247   1.419   1.343   1.610   1.665   1.215   1.058   1.061   1.127   1.124   1.063   1.245   0.854   0.878   0.936   0.828   0.783   0.763   0.816   0.832   1.120   0.929   1.163   1.135   1.252   1.298   1.169   1.042   1.080   1.309   1.176   1.110   1.224   1.260   1.202   1.244   1.017   1.005   1.097   1.377   1.333   1.191   1.457   1.152   1.103   1.104   1.559   1.626   1.171   1.208   1.179   1.066   1.249   1.029   1.088   1.325   1.421   1.474   1.491   1.426   1.616   1.676   1.760   1.543   1.083   1.122   1.129   0.923   0.921   0.940   0.951   0.946   1.212
   234.69    1.037   0.791   1.114   1.288   1.206   1.068   1.159   1.208   1.029   1.133   0.954   0.934   1.035   0.902   0.947   0.813   1.020   0.851   0.831   0.802   0.921   0.938   1.213   1.360   1.448   1.158   0.970   1.056   1.227   1.343   1.204   1.339   1.215   1.178   1.363   1.307   1.122   1.061   1.021   0.894   0.939   1.007   1.089   1.261   1.200   1.173   1.026   1.317   1.481   1.381   1.611   1.140   1.110   1.210   1.432   1.756   1.755   1.908   1.792   1.701   1.512   1.403   1.448   1.163   1.050   0.740   0.960   1.109   1.053   1.238   1.339   1.220   1.451   1.785   1.779   1.605   1.918   1.808   2.163   2.173   1.693   1.896   1.886   1.889   1.515   1.678   1.671   1.406   1.418   1.688   1.849   1.662   1.560   1.232   1.143   1.058   0.865   1.026   0.894   1.292   1.431   1.219   1.238   0.917   0.906   0.813   0.982   0.936   1.171   1.457   1.341   1.346   1.360   1.498   1.525   1.225   1.056   0.915   0.823   0.890   1.197   1.288   1.203   1.194   1.056   1.006   0.979   0.921   0.777   0.840   0.904   0.838   0.758   0.800   0.909   1.201   1.098   1.243   1.132   1.430   1.578   1.409   1.547   1.407   1.598   1.399   1.283   1.019   0.901   0.814   0.879   0.898   0.971   0.719   0.822   0.914   0.940   1.186   1.376   1.322   1.186   1.141   1.162   1.018   1.149   1.202   0.899   0.945   1.163   1.302   1.503   1.733   1.783   1.572   1.090   0.952   1.124   1.151   1.146   1.211   1.208   0.809   0.831   0.853   1.011   0.931   0.985   0.927   0.888   0.923   0.977   1.158   1.378   1.316   1.388   1.319   1.004   0.993   0.945   0.822   0.784   0.722   0.893   1.030   1.050   0.981   1.343   1.520   1.419   1.125   1.210   1.428   1.660   1.703   1.760   1.716   1.616   1.582   1.622   1.615   1.395   1.143   1.182   1.208   1.238   1.148   1.057   1.147   1.054   0.920   1.337   1.198   1.090   1.037   0.933   1.010   1.044   1.063   1.169   1.191   0.913   0.951   0.762   0.979   0.996   0.954   1.072   0.790   0.834   0.807   0.937   1.070   1.194   0.871   1.018   1.152   1.253   0.875   0.855   0.844   0.985   1.265   1.169   1.287   1.305   1.528   1.647   1.608   1.494   1.056   1.317   1.385   1.160   1.120   1.216   1.112   1.125   1.117   1.131   1.191   1.140   1.396   1.259   1.661   1.672   1.660   1.541   1.294   1.151   0.953   0.850   0.863   0.968   1.065   1.168   1.305   1.095   1.013   1.093   1.155   0.954   1.040   1.272   1.246   1.194   1.111   1.271   1.077   1.107   1.207   1.370   1.477   1.112   1.178   1.008   1.019   0.827   0.862   1.056   1.267   1.234   1.120   1.135   1.335   1.421   1.216   1.388   1.459   1.015   1.212   1.324   1.288   1.108   0.785   1.113   1.212   1.293   0.985   1.266   1.096   1.129   1.356   1.085   1.410   1.561   1.404   1.502   1.291   1.208   1.122   1.316   1.094   1.214   1.192   1.358   1.086   1.210   1.083   1.182   1.170   1.091   1.191   1.506   1.598   1.711   1.789   1.614   1.529   1.172   1.492   1.290   1.335   1.076   1.060   0.905   1.059   1.086   1.172   1.249   1.278   1.410   1.478   1.569   1.182   1.547   1.788   1.854   1.588   1.491   1.354   1.266   1.233   1.127   1.077   1.269   1.010   0.910   1.037   1.047   1.105   1.042   0.961   0.920   1.092   1.219   1.205   1.072   1.070   1.059   1.148   1.344   1.234   1.225   1.426   1.408   1.553   1.579   1.440   1.248   1.142   1.192   1.178   1.136   1.229   1.246   1.354   1.327   1.369   1.477   1.382   1.469   1.404   1.129   0.938   0.996   1.090   0.970   1.101   1.216   1.223   0.944   1.032   0.958   1.023   0.838   0.941   1.052   1.010   1.050   1.029   1.200   1.214   1.255   1.008   1.036   1.088   1.229   1.211   1.110   1.077   1.194   1.176   1.227   1.136   0.957   1.147   1.250   1.489   1.657   1.129   1.233   1.097   1.339   1.525   1.452   1.468   1.141   0.898   0.922   1.161   1.323   1.482   1.210   1.397   1.352   1.486   1.236   1.497   1.538   1.576   1.245   1.209   1.231   0.970   0.899   0.952   0.812   0.797   1.078   1.152
   229.59    0.822   0.980   0.971   0.915   1.095   0.947   1.116   0.986   1.102   0.971   0.991   1.089   1.152   1.102   1.024   0.862   0.904   1.085   1.052   1.092   0.962   1.194   1.206   0.985   1.117   1.140   1.226   1.248   1.234   1.549   1.401   1.164   1.036   1.086   1.282   1.177   1.239   0.886   0.939   0.849   0.972   0.868   0.955   1.023   1.109   0.962   0.807   1.093   1.362   1.485   1.557   1.182   1.105   1.348   1.626   1.606   1.739   1.642   1.610   1.718   1.584   1.332   1.286   1.118   1.076   0.941   1.029   0.987   0.916   1.102   1.284   1.061   1.373   1.675   1.606   1.642   1.733   2.011   2.116   2.092   2.063   2.058   1.685   1.662   1.471   1.224   1.536   1.571   1.377   1.734   1.681   1.753   1.503   1.335   1.087   0.877   0.891   1.122   1.391   1.403   1.478   1.484   1.298   1.017   0.922   1.090   1.181   1.092   1.156   1.321   1.300   1.478   1.758   1.552   1.486   1.276   1.044   0.842   0.878   1.082   0.985   1.082   1.031   0.881   0.926   0.864   1.069   0.834   1.060   0.835   0.850   0.669   0.875   1.018   1.159   1.098   1.352   1.237   1.527   1.267   1.438   1.210   1.294   1.405   1.418   1.248   1.133   0.994   0.975   0.998   0.877   0.836   1.077   0.859   0.683   0.829   0.829   1.049   1.135   1.236   1.268   1.160   1.051   1.313   1.239   1.136   1.113   1.049   1.184   1.338   1.431   1.568   1.627   1.464   1.220   1.029   0.960   0.939   0.952   1.122   1.177   0.798   0.744   0.733   0.893   1.054   1.179   1.116   0.645   0.801   0.905   1.041   1.106   1.275   1.402   1.236   1.161   1.322   1.282   1.129   0.784   0.776   1.005   0.964   1.114   1.283   1.310   1.314   1.257   1.135   1.033   1.380   1.286   1.475   1.719   1.647   1.389   1.455   1.611   1.429   1.175   1.060   1.122   0.917   0.915   1.045   0.842   0.932   0.998   1.156   1.387   1.420   1.265   0.895   1.059   1.021   0.785   0.969   0.810   0.979   0.957   0.851   0.881   0.976   1.044   0.912   0.885   0.894   1.113   0.878   1.041   0.889   0.904   1.118   0.964   0.976   1.024   0.979   0.836   0.817   1.289   1.067   1.465   1.234   1.471   1.491   1.133   1.398   1.231   1.128   1.510   1.379   1.036   0.875   1.069   1.031   1.109   1.348   1.180   0.941   1.382   1.160   1.483   1.894   1.836   2.023   1.924   1.807   1.355   1.095   1.254   1.115   1.027   1.129   1.114   1.198   1.419   1.161   0.870   0.869   0.899   0.895   1.123   1.055   0.964   0.903   1.044   1.016   0.959   0.855   1.150   1.203   1.203   1.149   0.970   0.895   1.012   1.007   0.954   1.070   1.195   1.221   0.990   1.111   1.151   1.089   1.344   1.363   1.269   1.106   1.273   1.099   1.116   0.950   1.172   1.162   1.049   1.046   1.173   1.109   1.232   1.307   1.260   1.513   1.282   1.426   1.535   1.500   1.082   1.054   1.207   1.359   1.252   1.170   1.175   0.998   1.052   1.037   1.112   1.033   1.085   1.092   1.188   1.735   1.512   1.592   1.716   1.298   1.590   1.558   1.256   1.384   1.173   1.184   0.843   0.930   0.993   1.045   1.150   1.214   1.407   1.236   0.997   1.236   1.523   1.764   1.641   1.490   1.376   1.274   1.261   1.179   1.000   0.813   0.970   0.970   0.896   0.842   0.906   0.970   0.992   1.059   1.002   1.058   1.133   1.314   1.147   1.165   1.196   1.301   1.452   1.517   1.605   1.496   1.618   1.846   1.600   1.417   1.312   1.134   1.068   1.081   1.024   0.990   1.152   1.219   1.358   1.201   1.130   1.033   1.103   1.111   1.058   1.032   0.884   0.880   0.946   0.889   1.085   1.259   1.105   1.142   1.104   1.232   1.210   1.148   1.026   1.177   1.066   1.004   0.943   1.152   1.184   0.895   1.014   1.133   1.206   1.390   1.356   1.319   1.320   1.346   1.196   1.085   1.040   0.976   1.114   1.140   1.295   1.376   1.167   1.196   1.445   1.392   1.477   1.426   1.292   0.900   0.933   1.146   1.026   1.186   1.226   1.319   1.467   1.272   1.157   1.349   1.560   1.262   1.315   1.376   1.401   1.116   0.959   1.109   0.729   0.863   0.892   0.902
   224.49    0.794   0.800   0.836   0.935   0.964   0.870   1.075   1.156   0.956   1.243   1.184   1.057   1.050   1.023   1.019   0.950   0.946   0.950   1.098   1.199   1.357   1.047   1.272   1.112   1.016   1.187   1.467   1.383   1.271   1.393   1.394   1.089   1.422   1.391   1.495   1.446   1.221   1.093   0.926   0.801   1.044   0.877   0.946   0.945   0.855   0.969   0.844   1.018   1.243   1.274   1.266   1.016   1.288   1.086   1.353   1.515   1.802   1.517   1.827   1.577   1.296   1.524   1.423   1.418   1.281   1.206   1.281   1.329   1.249   1.249   1.340   1.144   1.197   1.575   1.408   1.677   1.702   1.962   2.193   2.315   2.438   2.407   1.813   1.697   1.443   1.406   1.475   1.196   1.566   1.780   1.782   1.386   1.521   1.453   1.416   0.996   1.009   1.269   1.482   1.503   1.237   1.392   1.288   1.206   0.830   1.096   1.298   1.189   1.418   1.317   1.339   1.434   1.600   1.692   1.298   1.193   1.210   1.058   0.999   1.097   0.815   0.842   0.810   1.120   1.329   1.060   0.874   1.040   0.986   1.117   1.045   1.071   0.945   1.006   0.836   0.925   0.911   1.380   1.642   1.588   1.519   1.052   1.096   1.368   1.215   1.082   1.077   1.007   0.958   0.999   0.795   0.827   0.922   0.960   0.810   0.884   0.875   1.041   1.206   1.181   1.270   1.358   1.382   1.491   1.322   1.050   1.235   1.285   1.365   1.200   1.597   1.735   1.343   1.235   1.212   1.162   0.963   0.831   0.865   0.939   0.933   0.836   0.820   0.825   0.989   1.055   1.183   1.001   0.861   0.959   0.816   1.075   0.997   1.040   1.078   1.183   1.337   1.332   1.032   0.960   0.764   0.764   0.977   0.913   1.235   1.354   1.306   1.175   1.358   1.475   1.425   1.289   1.480   1.627   1.562   1.619   1.437   1.450   1.275   1.194   0.951   1.316   0.950   1.074   0.919   0.894   0.834   0.801   0.844   1.017   1.089   1.212   1.196   0.700   0.820   0.823   0.940   0.997   0.938   0.957   1.061   1.168   0.917   0.971   0.830   0.787   0.855   0.891   1.115   1.081   1.065   0.916   0.871   0.810   0.851   1.119   0.942   0.939   0.984   1.147   1.342   1.367   1.429   1.496   1.143   1.267   1.281   1.249   1.186   1.167   1.429   1.494   1.095   0.937   0.872   0.991   1.128   1.233   1.335   1.310   1.326   1.326   1.299   1.697   1.626   1.835   1.871   1.853   1.478   1.260   1.429   1.202   1.370   1.402   1.712   1.643   1.324   1.159   1.069   1.056   0.837   0.918   0.714   0.898   1.005   1.094   1.067   1.035   1.127   0.918   1.051   0.959   1.240   0.959   1.048   1.035   0.839   0.774   0.837   0.915   0.925   1.009   1.078   1.036   1.051   1.128   1.424   1.251   1.212   1.167   1.215   1.103   1.172   1.230   1.319   1.120   0.829   1.002   1.118   1.442   1.533   1.752   1.824   1.537   1.661   1.509   1.469   1.804   1.469   1.054   1.063   1.255   1.050   1.088   1.187   0.992   1.012   1.033   0.950   1.160   1.359   1.227   1.435   1.605   1.569   1.673   1.645   1.497   1.518   1.231   1.436   1.551   1.504   0.945   0.866   0.977   0.976   0.782   0.997   1.107   1.359   1.268   1.034   1.325   1.318   1.566   1.710   1.828   1.418   1.035   1.200   1.042   0.853   0.814   0.882   0.775   0.943   0.952   0.964   1.159   1.251   1.162   1.487   1.167   1.318   1.227   1.491   1.519   1.470   1.511   1.384   1.470   1.964   2.033   1.596   1.693   1.680   1.758   1.533   1.481   1.174   1.148   1.130   1.087   0.950   1.114   1.265   0.924   1.174   0.941   1.123   1.160   0.862   0.937   0.817   0.741   0.819   0.993   1.008   1.096   1.109   1.142   1.046   1.149   1.413   1.426   1.160   1.255   0.907   0.827   1.023   0.961   0.936   0.888   0.967   1.156   1.530   1.466   1.532   1.598   1.643   1.662   1.609   1.223   1.176   1.038   0.912   0.949   1.162   0.996   0.889   1.225   1.601   1.544   1.659   1.407   1.174   1.019   0.941   1.254   1.031   1.163   1.302   1.223   1.217   1.209   1.192   1.266   1.207   1.329   1.184   1.449   1.194   0.888   1.044   1.047   0.915   0.911   0.929   0.904
   219.39    0.808   0.995   0.784   0.736   0.746   0.826   0.826   1.064   1.105   1.052   1.026   0.963   1.024   1.144   0.823   0.775   1.037   1.084   0.979   0.999   1.051   0.981   1.030   1.136   1.479   1.613   1.321   1.517   1.406   1.338   1.227   1.179   1.327   1.404   1.365   1.313   1.025   1.033   1.159   0.907   0.943   0.834   1.008   0.899   1.057   0.949   1.135   0.900   0.921   1.073   1.082   1.018   1.063   1.195   1.254   1.546   1.803   1.790   1.648   1.830   1.476   1.537   1.232   1.221   1.475   1.538   1.359   1.252   1.393   1.240   1.112   1.094   1.073   1.400   1.614   1.412   1.410   1.796   2.023   1.998   2.316   2.256   1.854   1.650   1.620   1.616   1.503   1.426   1.312   1.765   1.685   1.726   1.292   1.147   1.187   1.044   1.425   1.274   1.322   1.310   1.399   1.200   1.187   1.012   0.774   0.927   1.180   1.131   1.170   1.272   1.434   1.363   1.244   1.388   1.242   1.301   1.209   0.968   0.886   0.907   0.797   1.040   0.999   1.066   1.066   1.165   0.855   0.975   1.109   0.898   1.079   1.050   1.205   1.101   1.204   1.127   1.027   1.358   1.484   1.371   1.294   1.177   1.110   1.253   1.237   0.889   1.069   0.888   0.882   0.925   0.920   0.843   0.938   1.005   0.897   0.904   1.231   1.205   1.288   1.432   1.328   1.260   1.436   1.446   1.158   1.233   1.310   1.265   1.301   1.379   1.568   1.586   1.329   1.484   1.346   1.329   1.176   1.037   0.877   0.886   0.989   0.847   0.783   1.158   1.140   1.294   1.241   1.135   0.995   1.118   1.274   1.062   1.071   1.021   1.128   1.147   1.400   1.206   1.149   1.006   0.783   0.898   1.055   0.994   1.227   1.139   1.176   1.326   1.592   1.583   1.511   1.349   1.647   1.701   1.544   1.395   1.563   1.263   1.146   0.964   0.825   1.204   1.381   1.048   0.990   0.729   0.885   1.004   1.018   1.104   0.897   1.108   1.103   0.857   0.965   0.870   0.879   0.898   0.984   0.976   1.084   0.955   0.990   0.947   0.831   0.880   0.983   0.853   1.233   1.298   1.054   1.038   0.969   0.803   0.934   1.167   1.158   1.081   1.285   1.209   1.397   1.515   1.384   1.351   1.197   1.321   1.087   1.073   1.297   1.294   1.233   1.361   1.127   1.140   0.984   1.132   1.307   1.238   1.458   1.284   1.235   1.446   1.488   1.578   1.852   1.961   1.755   1.814   1.263   1.399   0.970   1.353   1.159   1.331   1.519   1.765   1.614   1.204   1.203   1.176   0.925   0.690   0.898   0.963   0.911   1.037   1.084   1.199   0.848   0.770   1.074   1.163   1.395   1.062   0.992   1.132   1.083   1.052   1.104   0.978   1.092   1.010   0.877   1.096   1.125   1.051   1.302   1.227   1.136   1.140   1.032   0.906   1.163   1.069   1.382   1.117   1.198   1.001   1.073   1.504   1.310   1.724   1.614   1.908   1.586   1.486   1.506   1.536   1.392   1.335   1.161   1.248   0.936   1.245   1.183   1.085   1.081   1.037   0.954   0.994   1.116   1.334   1.327   1.480   1.337   1.484   1.438   1.395   1.092   1.257   1.458   1.433   1.418   1.173   0.893   1.183   1.153   1.262   1.024   1.408   1.636   1.593   1.418   1.064   1.118   1.326   1.442   1.553   1.685   1.228   1.187   1.073   0.962   0.795   0.826   0.929   0.844   1.196   1.271   1.369   1.246   1.213   1.296   1.467   1.281   1.456   1.623   1.640   1.404   1.357   1.274   1.822   1.978   2.139   1.862   1.478   1.569   1.540   1.401   1.386   1.137   1.129   1.097   0.892   1.069   0.952   1.234   0.933   1.125   1.063   0.887   0.921   0.963   0.897   0.970   0.811   0.703   0.926   0.989   1.112   1.271   1.161   1.277   1.341   1.295   1.331   1.507   1.317   1.067   0.980   1.056   0.827   1.022   1.047   1.204   1.291   1.377   1.743   1.769   1.619   1.543   1.727   1.662   1.750   1.583   1.458   1.273   1.107   1.180   1.015   0.929   1.184   1.465   1.597   1.579   1.460   1.080   1.182   1.357   1.271   1.243   1.343   0.982   1.040   1.141   1.243   1.145   1.120   1.227   1.008   1.359   1.402   1.363   0.995   1.059   1.056   1.049   0.951   0.764   0.920
   214.29    1.079   0.836   0.841   0.788   0.917   0.891   0.891   0.920   0.840   0.960   0.867   0.875   0.848   1.123   1.049   1.152   1.231   1.168   0.840   0.828   0.911   1.144   1.378   1.544   1.412   1.389   1.437   1.439   1.633   1.579   1.615   1.497   1.419   1.205   1.225   1.003   1.155   0.873   1.000   1.053   0.870   0.894   0.934   1.092   1.125   1.087   1.084   1.197   1.067   1.205   0.723   1.020   0.814   0.946   1.100   1.268   1.578   1.223   1.670   1.679   1.660   1.441   1.345   1.599   1.478   1.303   1.479   1.755   1.541   1.268   1.104   1.061   1.217   1.353   1.466   1.485   1.503   1.667   1.655   2.052   2.407   2.329   1.796   1.977   2.066   1.701   1.458   1.434   1.744   1.769   1.873   1.681   1.290   1.292   1.406   1.566   1.503   1.215   1.194   1.230   1.109   1.025   1.084   1.103   0.956   0.847   1.019   0.922   1.068   1.100   1.196   1.091   1.109   1.346   1.356   1.179   1.166   0.987   0.890   0.893   0.888   0.828   0.974   1.140   1.050   0.950   0.958   1.224   1.132   1.122   1.209   1.305   1.183   1.122   1.169   1.031   1.343   1.420   1.539   1.370   1.583   1.468   1.234   0.989   1.138   1.004   1.213   1.042   0.870   0.857   0.977   0.961   0.996   1.153   1.012   1.036   1.193   1.089   1.153   1.340   1.372   1.520   1.314   1.353   1.077   1.112   1.234   1.230   1.300   1.311   1.472   1.468   1.525   1.685   1.196   1.156   1.089   1.112   0.954   1.064   1.187   0.918   0.899   1.267   1.257   1.406   1.268   1.238   1.036   1.275   1.310   1.238   1.210   1.240   0.877   1.037   1.228   1.327   1.143   1.015   0.888   1.000   1.080   1.024   0.946   1.034   1.011   1.171   1.324   1.335   1.501   1.414   1.410   1.632   1.676   1.582   1.592   1.520   1.198   1.033   0.986   1.143   1.288   1.149   0.751   0.856   0.746   0.890   0.925   0.772   0.972   0.910   1.011   1.011   0.969   1.130   0.940   0.891   0.961   0.986   0.969   1.000   0.955   0.833   0.870   0.875   0.814   0.969   1.184   0.949   0.977   1.035   0.907   1.010   0.992   0.928   0.984   1.185   1.257   1.285   1.387   1.232   1.299   1.162   1.007   1.113   1.141   1.151   1.199   1.023   0.996   1.090   1.210   1.169   1.036   1.075   1.284   1.013   1.258   1.218   1.270   1.239   1.306   1.207   1.645   1.965   1.750   1.760   1.433   1.240   1.120   1.235   1.267   1.310   1.726   1.708   1.702   1.385   1.507   1.212   1.119   0.872   1.021   1.015   0.924   0.809   1.022   0.975   1.043   0.675   0.892   0.939   1.049   1.194   1.244   1.096   1.112   0.993   0.974   1.077   0.948   1.004   0.869   0.895   0.900   1.040   1.028   1.141   1.145   1.100   0.778   1.113   1.014   1.118   1.146   1.232   1.217   1.285   1.551   1.503   1.378   1.663   1.649   1.814   1.756   1.463   1.191   1.327   1.374   1.378   1.027   1.133   0.969   1.060   1.118   1.316   0.930   0.812   0.983   1.010   1.030   0.953   1.085   1.218   1.475   1.293   1.392   1.178   1.166   1.399   1.171   1.133   1.233   1.332   1.299   1.395   1.364   1.224   1.361   1.435   1.320   1.366   1.168   0.947   1.136   1.339   1.343   1.354   1.386   1.273   1.048   1.142   0.867   0.956   0.932   0.973   1.003   1.209   1.142   1.309   1.324   1.269   1.334   1.200   1.243   1.532   1.414   1.351   1.362   1.258   1.617   1.615   1.949   1.907   1.828   1.555   1.155   1.079   1.189   1.293   1.135   0.889   0.912   0.931   0.987   0.940   1.080   0.852   0.918   1.076   1.002   0.875   0.788   0.884   0.929   1.038   0.960   1.020   1.113   1.100   1.496   1.525   1.363   1.252   1.077   1.199   1.270   1.227   1.417   1.293   1.054   1.027   1.189   1.350   1.229   1.521   1.286   1.457   1.953   1.669   1.737   1.826   1.969   1.762   1.687   1.572   1.028   0.961   1.163   1.166   0.972   1.011   1.161   1.170   1.474   1.548   1.262   1.451   1.426   1.231   1.310   1.244   1.022   0.902   1.443   1.691   1.327   1.061   1.132   1.079   1.196   1.419   1.218   1.285   1.461   1.341   0.946   0.860   1.090   1.515
   209.18    0.971   0.903   0.834   0.902   1.009   0.948   0.986   1.001   0.935   0.879   0.835   0.956   1.085   0.861   1.001   0.876   1.000   1.132   1.013   1.011   0.950   1.250   1.338   1.387   1.333   1.211   1.407   1.704   1.584   1.755   1.902   1.704   1.679   1.556   1.341   1.260   1.181   1.124   0.907   1.213   1.062   1.063   0.668   1.130   1.094   1.159   1.138   1.237   1.130   1.125   0.967   1.046   0.941   0.976   1.152   1.277   1.205   1.322   1.484   1.424   1.223   1.450   1.367   1.557   1.697   1.451   1.570   1.537   1.236   1.242   1.195   1.025   1.154   1.016   1.041   1.294   1.212   1.428   1.478   1.871   2.181   2.091   1.868   1.806   1.951   1.887   1.732   1.670   1.615   1.644   1.427   1.480   1.112   1.250   1.006   1.065   1.258   1.274   1.209   1.385   1.034   0.828   0.857   0.925   1.043   1.030   1.201   0.987   0.874   0.982   0.807   0.980   1.028   1.223   1.144   0.983   0.917   1.014   0.947   1.002   1.007   0.887   0.829   1.023   0.899   0.946   1.024   1.127   1.085   1.083   1.144   1.075   1.191   1.108   1.288   1.063   1.331   1.434   1.433   1.554   1.457   1.560   1.408   1.313   1.097   1.144   1.258   1.129   1.070   1.057   1.051   1.055   1.144   1.157   1.150   0.965   0.990   0.854   1.144   1.187   1.157   1.159   1.270   1.069   0.766   0.958   1.110   0.869   1.271   1.536   1.382   1.401   1.281   1.339   1.429   1.015   0.952   0.932   1.016   0.988   0.913   1.294   1.024   1.127   1.353   1.394   1.235   1.159   1.281   1.028   1.116   1.097   1.126   1.103   1.084   1.009   1.069   1.036   0.992   1.102   1.388   1.060   1.054   0.872   0.800   0.709   0.743   1.130   1.376   1.165   1.190   1.217   1.380   1.455   1.502   1.251   1.335   1.335   1.095   0.974   1.074   1.198   1.205   1.049   0.839   0.777   0.861   0.846   0.986   0.922   0.847   0.975   1.112   1.152   1.114   1.232   0.873   0.859   0.872   1.277   0.882   1.031   0.923   0.937   0.987   0.926   0.890   0.885   1.034   0.957   0.869   0.926   0.833   0.900   0.972   0.890   0.829   1.092   1.060   1.315   1.002   1.110   1.357   1.337   1.069   1.084   0.922   0.963   0.956   0.937   1.212   1.213   1.328   1.136   1.197   0.976   1.222   1.240   1.275   1.189   1.119   1.043   1.024   1.244   1.534   1.627   1.771   1.615   1.141   1.180   1.206   1.296   1.571   1.394   1.672   1.713   1.820   1.680   1.525   1.320   1.218   1.189   1.020   1.114   0.931   1.054   0.840   0.970   0.983   0.834   0.809   0.842   0.861   0.990   1.013   0.991   1.060   0.935   1.148   1.113   1.058   1.109   0.955   0.813   1.004   0.888   0.844   0.898   0.994   1.141   0.995   1.210   1.097   1.310   1.540   1.422   1.462   1.320   1.567   1.330   1.424   1.665   1.434   1.613   1.330   1.624   1.356   1.484   1.227   1.251   1.216   1.042   1.098   0.978   1.053   0.930   1.046   1.007   1.052   0.892   0.900   0.835   1.047   1.193   1.132   1.449   1.543   1.426   1.237   1.286   1.261   1.230   1.248   1.072   1.319   1.113   1.360   1.407   1.482   1.285   1.166   1.344   1.169   0.946   1.045   1.120   1.308   1.493   1.304   1.081   0.975   1.038   0.994   0.876   0.884   0.867   0.956   1.049   1.432   1.246   1.383   1.419   1.289   1.304   1.325   1.355   1.488   1.287   1.344   1.434   1.626   1.673   1.771   1.653   1.483   1.268   1.128   1.122   0.937   0.915   0.971   0.811   0.822   1.033   0.949   1.037   0.853   0.818   0.918   0.982   0.862   0.957   1.050   0.822   1.327   1.122   0.861   0.907   1.282   1.314   1.755   1.874   1.293   1.245   1.408   1.288   1.297   1.531   1.344   1.127   1.210   1.070   1.185   1.118   1.348   1.237   1.319   1.243   1.694   1.895   2.024   1.982   2.058   1.974   1.608   1.285   1.265   1.047   1.352   1.123   0.898   1.075   1.006   1.345   1.255   1.522   1.324   1.605   1.390   1.337   1.312   1.137   1.278   1.156   1.418   1.746   1.503   1.313   1.411   1.479   1.561   1.327   1.457   1.576   1.364   1.487   1.115   0.991   1.157   1.423
   204.08    1.032   0.985   1.000   1.011   1.017   0.934   0.903   1.063   1.228   1.098   1.067   1.050   1.216   1.308   1.090   1.296   1.149   1.235   1.127   0.819   0.888   1.128   1.246   1.123   1.193   1.342   1.472   1.573   1.771   1.447   1.457   1.757   1.517   1.374   1.345   1.244   1.249   1.097   1.082   1.053   1.080   1.000   0.876   0.963   1.138   1.098   1.213   1.415   1.127   1.119   1.361   1.103   1.074   1.000   1.032   1.077   1.299   1.299   1.109   1.016   0.899   1.116   1.138   1.422   1.383   1.499   1.231   1.338   1.095   0.980   1.081   1.007   1.116   1.133   1.201   1.247   1.113   1.064   1.476   1.493   1.747   1.826   1.969   2.020   1.999   1.626   1.611   1.333   1.408   1.163   1.365   1.478   1.101   1.127   1.015   0.994   0.930   1.092   1.149   1.180   1.098   0.907   0.956   0.913   0.939   1.041   1.289   1.181   0.937   0.993   0.979   0.909   0.985   1.056   0.876   0.727   0.936   1.004   1.003   0.845   0.974   0.816   0.770   0.816   0.687   0.783   0.808   1.022   0.932   0.853   1.139   1.324   1.239   1.267   1.199   1.488   1.474   1.608   1.304   1.385   1.196   1.431   1.293   1.203   1.136   1.089   1.186   1.024   0.791   0.861   0.921   1.057   1.196   1.245   1.070   0.984   0.785   0.903   0.951   1.234   1.365   1.245   0.933   0.880   0.872   0.960   0.852   0.942   0.970   1.255   1.308   1.475   1.172   1.085   1.117   0.984   1.133   0.966   0.745   0.966   1.043   1.363   1.195   1.207   1.365   1.380   1.174   1.397   1.478   0.946   0.856   1.091   1.071   1.023   0.929   1.101   1.078   1.160   1.154   1.443   1.163   1.261   0.998   0.849   0.877   0.756   1.116   1.381   1.203   1.479   1.422   1.199   1.383   1.457   1.370   1.382   1.600   1.392   1.133   1.358   1.250   1.004   0.943   0.854   0.951   0.828   0.870   0.808   0.939   1.087   1.177   1.128   1.035   1.135   1.235   1.184   1.141   0.778   0.910   1.145   1.179   1.221   0.935   1.040   0.934   1.018   0.992   0.898   0.881   1.043   1.241   1.048   0.943   0.991   0.915   1.081   1.063   0.992   1.056   1.170   1.125   1.180   1.362   1.289   1.245   1.099   0.855   0.859   0.769   0.975   1.041   1.216   1.033   1.055   1.121   1.225   1.397   1.343   1.330   1.494   1.209   1.275   1.156   1.153   1.354   1.437   1.725   1.596   1.378   1.203   1.051   1.142   1.316   1.435   1.432   1.416   1.469   1.283   1.302   1.320   1.423   1.175   0.965   0.806   0.724   0.914   0.768   0.955   0.832   1.021   1.027   0.749   0.761   0.996   0.965   1.028   0.915   0.907   1.097   1.027   0.903   0.950   0.984   0.990   0.968   0.955   1.081   0.892   1.067   1.076   1.017   0.919   1.278   1.149   1.275   1.545   1.378   1.452   1.592   1.670   1.609   1.631   1.451   1.270   1.244   1.471   1.542   1.558   1.031   1.058   0.975   1.030   0.862   0.970   1.027   1.102   1.087   0.866   0.943   0.894   1.019   1.034   1.114   0.875   0.932   1.056   1.472   1.633   1.531   1.413   1.650   1.612   1.250   1.089   1.438   1.379   1.374   1.425   1.425   1.187   1.193   1.402   1.402   1.065   0.906   1.222   1.317   1.444   1.320   1.032   0.880   0.971   0.736   0.970   0.968   0.760   0.886   1.215   1.448   1.332   1.458   1.350   1.417   1.302   1.117   1.338   1.400   1.207   1.536   1.287   1.286   1.396   1.595   1.352   1.160   1.100   1.056   1.147   1.074   0.956   0.683   0.785   0.849   1.002   0.938   1.128   0.897   1.119   0.957   0.899   0.917   1.056   1.012   1.012   1.196   1.340   1.246   1.073   1.300   1.490   1.688   1.588   1.368   1.312   1.212   1.214   0.953   1.274   1.038   1.173   1.178   1.305   1.327   1.055   1.208   1.348   1.276   1.248   1.610   1.613   1.805   1.521   1.650   1.712   1.455   1.468   1.132   1.093   1.236   1.253   1.066   1.210   1.460   1.194   1.206   1.357   1.501   1.545   1.520   1.271   1.284   1.135   0.954   1.019   1.241   1.768   1.904   1.630   1.514   1.386   1.488   1.402   1.436   1.474   1.172   1.301   1.319   1.234   1.425   1.567
   198.98    0.931   0.931   1.016   0.890   1.210   1.169   1.160   1.091   1.191   1.059   0.799   1.156   1.321   1.273   1.084   1.309   1.363   1.075   1.220   0.844   0.768   0.935   1.281   1.406   1.500   1.492   1.290   1.150   1.395   1.620   1.731   1.750   1.701   1.635   1.494   1.517   1.306   1.392   1.343   0.941   0.875   0.802   0.833   0.946   1.114   1.208   1.233   1.337   1.225   1.323   1.198   1.092   1.257   1.180   1.147   1.353   1.302   1.062   1.208   1.285   0.954   0.948   1.006   1.341   1.488   1.460   1.075   0.949   0.983   0.813   0.780   0.851   0.969   1.149   1.081   0.834   1.048   1.053   1.254   1.390   1.506   1.426   1.626   1.861   1.733   1.483   1.606   1.331   1.194   1.201   1.268   1.264   1.261   0.948   0.820   0.896   0.973   0.963   0.866   1.094   1.151   1.035   0.947   0.948   0.966   0.983   1.050   1.123   1.304   1.319   0.959   0.883   1.045   1.039   1.001   0.903   0.907   0.918   0.969   1.069   1.099   0.892   0.763   0.747   0.824   0.837   0.862   0.938   0.852   0.998   1.124   1.036   1.429   1.341   1.571   1.363   1.609   1.599   1.583   1.502   1.313   1.323   1.159   1.101   1.099   1.072   1.072   1.157   1.029   0.929   1.197   1.134   1.175   1.286   1.309   1.102   1.322   1.214   1.171   1.353   1.417   1.289   1.193   1.235   1.084   0.959   0.831   0.886   1.031   1.027   1.478   1.429   1.223   0.969   0.893   1.066   0.945   0.852   0.816   0.880   0.892   1.178   1.207   1.390   1.556   1.464   1.282   1.523   1.413   1.092   1.039   1.034   1.238   1.145   0.902   0.986   1.169   1.000   1.146   1.215   1.287   1.240   1.016   1.102   1.052   1.172   1.178   1.399   1.336   1.459   1.331   1.297   1.309   1.555   1.525   1.629   1.631   1.448   1.172   1.147   1.314   0.940   0.978   0.860   0.881   0.757   0.853   0.797   0.905   1.083   1.319   1.129   0.967   1.057   1.195   0.995   1.028   0.838   0.996   0.846   1.242   1.376   1.337   1.293   0.953   1.150   1.302   1.077   1.304   1.115   1.080   1.127   0.893   0.846   0.915   0.858   0.924   0.970   1.227   0.934   0.996   0.969   1.163   1.092   1.245   1.023   1.216   1.063   0.883   0.869   0.940   1.108   1.242   1.263   1.301   1.476   1.475   1.431   1.247   1.273   1.193   1.361   1.249   1.246   1.507   1.494   1.774   1.461   1.428   1.355   1.311   1.276   1.332   1.507   1.513   1.079   1.254   1.073   0.903   1.171   1.329   1.387   1.368   1.042   0.719   0.733   0.807   0.988   0.906   1.083   0.986   0.859   0.858   1.001   1.011   0.991   0.902   0.918   0.933   0.793   0.831   0.986   0.943   0.850   0.909   0.894   0.806   1.055   1.229   1.078   1.083   1.004   1.259   1.129   1.102   1.244   1.270   1.618   1.578   1.499   1.320   1.467   1.522   1.212   1.217   1.407   1.468   1.353   1.049   1.109   0.771   0.874   0.817   0.915   1.003   1.137   1.050   0.901   0.883   1.018   1.036   1.166   1.069   1.107   1.077   1.316   1.531   1.436   1.473   1.659   1.570   1.272   1.202   1.196   1.272   1.433   1.351   1.317   1.358   1.190   1.247   1.250   1.336   0.998   0.961   1.274   1.249   1.164   1.275   0.996   0.958   0.945   1.028   1.020   0.822   1.024   1.057   1.031   1.297   1.502   1.809   1.685   1.718   1.584   1.460   1.470   1.187   1.379   1.344   1.247   1.439   1.402   1.392   1.225   1.152   1.169   0.893   1.058   1.117   0.974   0.955   0.868   0.832   1.054   0.958   1.045   1.127   1.007   1.191   0.999   1.137   1.382   0.946   1.107   1.109   1.244   1.385   1.445   1.511   1.351   1.412   1.611   1.427   1.458   1.163   1.100   1.240   1.153   1.292   1.116   1.371   1.325   1.392   1.103   1.133   1.068   1.081   1.364   1.596   1.673   1.576   1.456   1.483   1.389   1.514   1.259   1.172   1.246   1.238   1.260   1.121   1.337   1.495   1.429   1.363   1.191   1.217   1.404   1.513   1.390   1.158   1.219   1.129   1.074   1.539   1.796   1.692   1.855   2.047   1.771   1.598   1.361   1.667   1.414   1.087   1.281   1.429   1.565   1.356   1.241
   193.88    0.961   0.905   0.846   0.899   1.189   1.380   1.239   1.205   1.241   1.270   0.911   1.309   1.424   1.028   1.106   1.280   1.295   1.119   1.012   1.026   0.878   1.099   1.253   1.273   1.292   1.043   1.193   1.151   1.118   1.490   1.755   1.711   1.479   1.340   1.280   1.252   1.205   1.293   1.260   1.075   0.891   0.902   1.039   0.996   1.277   1.063   1.060   1.116   1.258   1.140   1.386   1.209   1.511   1.531   1.103   1.260   1.226   0.927   1.025   1.160   1.103   0.948   0.779   1.081   1.297   1.228   1.310   0.979   0.854   0.742   0.746   0.780   0.909   1.015   1.165   0.946   1.050   0.793   0.864   1.093   1.229   0.972   1.277   1.441   1.406   1.641   1.376   1.532   1.483   1.418   1.369   1.037   0.972   0.854   0.893   1.001   0.953   0.993   1.162   0.962   1.232   1.057   1.087   1.037   0.975   1.133   1.104   0.981   1.204   1.369   0.984   0.839   0.924   0.815   1.014   1.077   0.956   0.666   0.776   0.856   1.087   0.808   0.885   0.823   0.688   0.930   0.840   0.842   0.947   0.887   1.312   1.303   1.331   1.509   1.568   1.269   1.484   1.521   1.471   1.589   1.191   1.054   1.162   1.124   0.890   1.074   1.257   1.230   1.088   0.956   1.392   1.403   1.257   1.329   1.347   1.305   1.308   1.305   1.372   1.637   1.622   1.284   1.137   1.157   0.994   0.867   0.812   0.827   1.036   1.100   1.412   1.404   1.014   0.934   0.808   0.801   1.036   0.977   0.994   0.767   0.829   1.041   1.049   1.248   1.355   1.464   1.141   1.265   1.251   1.289   1.179   1.067   1.053   0.914   0.842   0.908   0.960   1.014   1.143   1.080   1.097   0.949   1.168   1.167   1.056   1.331   1.265   1.619   1.469   1.406   1.310   1.412   1.350   1.428   1.264   1.511   1.386   1.379   1.031   1.071   0.977   1.080   0.877   0.780   0.896   0.981   0.945   0.772   1.007   1.092   1.247   1.121   1.128   1.013   1.163   1.050   0.978   0.917   1.041   1.072   1.123   1.217   1.171   1.178   1.237   1.122   0.926   1.265   1.177   1.277   1.110   0.941   1.124   1.039   1.167   0.876   0.838   0.829   1.085   1.112   1.022   0.944   0.946   1.151   1.074   1.019   1.140   1.082   0.982   0.889   1.031   1.101   0.954   1.210   1.282   1.294   1.441   1.094   1.359   1.170   1.216   1.080   1.345   1.368   1.382   1.580   1.630   1.637   1.436   1.536   1.594   1.139   1.300   1.262   1.393   1.453   1.333   1.147   0.909   1.124   1.302   1.118   1.037   0.979   0.836   0.917   0.959   0.730   0.826   1.102   1.180   1.284   1.144   0.859   0.849   0.972   0.990   0.904   0.984   0.762   0.837   1.057   1.149   0.854   1.035   0.987   0.936   1.202   1.333   1.137   1.088   1.161   1.133   1.243   0.929   1.114   1.260   1.381   1.207   1.287   1.243   1.235   1.300   1.271   1.297   1.372   1.219   1.055   0.996   1.185   0.924   0.915   0.908   0.963   1.036   0.971   0.918   1.005   0.928   1.005   0.992   0.977   1.217   0.899   1.140   1.225   1.556   1.510   1.334   1.403   1.574   1.558   1.212   1.105   1.375   1.336   1.242   1.353   1.494   1.314   1.417   1.310   1.191   1.055   0.823   1.007   1.055   1.160   1.428   1.362   0.895   1.031   1.141   1.104   1.156   1.227   1.161   1.459   1.858   1.647   1.789   1.452   1.588   1.631   1.231   1.068   1.310   1.100   1.035   1.320   1.325   1.031   1.010   1.130   1.294   1.149   0.991   0.928   1.148   0.874   0.883   0.888   0.943   1.075   1.155   1.268   1.031   1.074   1.045   1.208   1.215   1.315   1.001   0.956   1.130   0.987   1.275   1.497   1.404   1.447   1.425   1.242   1.398   1.541   1.137   1.080   0.864   1.024   1.198   1.247   1.343   1.255   1.266   0.994   1.123   1.188   1.114   1.110   1.181   1.275   1.188   1.341   1.243   1.270   1.000   1.183   1.256   0.934   1.214   1.415   1.240   1.423   1.468   1.467   1.375   1.185   1.137   1.134   1.116   1.344   1.290   1.282   1.346   1.408   1.535   1.596   1.441   1.482   1.494   1.819   1.921   1.674   1.622   1.534   1.525   1.297   1.375   1.504   1.172   1.245
   188.78    1.072   1.157   1.072   1.069   1.281   1.111   1.397   1.125   1.067   1.462   1.474   1.430   1.392   1.155   1.229   1.446   1.381   1.308   1.262   1.192   1.044   1.188   1.133   1.218   1.082   1.265   1.363   1.300   1.398   1.518   1.647   1.392   1.378   1.541   1.490   1.276   1.157   1.044   1.153   1.076   0.959   1.147   0.909   1.168   1.352   1.097   1.240   1.121   1.411   1.404   1.597   1.398   1.619   1.345   1.237   1.230   1.132   1.043   1.013   1.031   1.055   0.966   1.019   1.032   1.099   1.160   1.308   1.008   1.027   0.832   0.875   0.781   0.867   0.932   0.960   1.094   0.827   0.982   0.929   0.918   1.032   0.831   0.928   1.229   1.382   1.406   1.569   1.467   1.463   1.274   1.322   1.161   0.811   0.794   0.685   0.838   0.901   1.058   1.339   1.399   1.259   1.080   0.865   0.871   0.903   1.134   1.048   0.990   0.925   1.289   1.274   1.117   0.968   0.993   1.208   1.283   1.125   0.833   1.050   0.927   1.082   0.778   1.029   0.853   0.921   1.024   0.809   0.838   0.978   1.130   1.363   1.356   1.113   1.505   1.597   1.482   1.351   1.380   1.290   1.377   1.155   1.240   1.263   1.171   1.129   1.172   1.142   1.130   1.276   1.192   1.494   1.537   1.503   1.566   1.576   1.410   1.392   1.191   1.485   1.512   1.569   1.371   1.232   1.010   0.932   0.956   0.994   0.757   0.943   1.179   1.458   1.376   1.247   0.959   0.914   0.709   1.082   1.056   0.997   0.942   0.871   0.969   0.856   1.110   1.411   1.407   1.543   1.097   0.922   1.241   1.084   1.071   0.937   0.859   0.791   0.726   0.721   0.880   1.139   1.009   1.012   0.987   0.862   0.895   0.992   1.202   1.460   1.491   1.522   1.481   1.439   1.150   1.267   1.169   1.015   1.368   1.127   1.169   1.030   1.035   1.110   1.287   1.231   1.037   1.341   1.120   1.022   1.119   1.275   0.915   1.020   1.147   0.913   0.992   1.056   1.011   0.955   1.112   1.210   1.233   0.982   1.081   1.365   1.106   1.036   1.046   1.300   1.235   1.212   1.222   1.031   1.139   1.202   1.289   1.446   1.189   0.939   0.993   1.007   1.220   0.987   1.008   0.924   1.163   1.249   1.337   1.516   1.266   1.009   0.897   0.960   1.118   1.254   0.981   1.116   1.079   1.184   1.414   1.397   1.149   1.221   1.245   1.137   1.599   1.594   1.381   1.353   1.189   1.187   1.281   1.461   1.280   1.100   1.359   1.397   1.390   1.250   1.138   1.323   1.058   1.047   1.043   0.859   0.845   0.933   0.838   0.822   0.846   1.162   1.005   1.014   1.205   1.373   1.208   0.913   1.125   0.837   0.890   0.823   0.914   0.950   0.950   0.997   0.830   1.111   1.325   1.324   1.311   1.077   1.140   1.218   1.144   1.237   0.983   1.022   1.216   0.975   0.852   1.012   1.083   1.063   0.969   1.023   1.209   1.051   1.009   1.310   1.191   1.005   1.084   1.023   0.945   0.990   1.248   1.060   1.173   1.364   1.164   0.884   0.829   1.028   1.135   1.154   0.954   1.073   1.195   1.548   1.460   1.269   1.358   1.599   1.386   1.009   1.415   1.346   1.306   1.221   1.186   1.355   1.392   1.220   1.051   1.117   1.137   1.140   0.743   0.870   1.254   1.440   1.145   1.044   1.290   1.120   1.240   0.965   1.001   1.287   1.587   1.916   1.931   1.709   1.549   1.671   1.332   1.363   1.263   1.152   0.940   0.978   1.100   1.283   1.023   1.278   1.258   1.417   1.401   1.165   0.915   0.899   0.994   1.070   1.023   0.950   0.933   1.012   0.969   1.062   1.190   1.180   1.383   1.432   1.169   1.004   1.071   0.936   0.790   0.892   1.230   1.074   1.196   1.412   1.163   1.271   1.336   1.088   1.075   0.738   0.941   1.058   1.155   1.144   1.293   1.111   0.934   0.787   1.162   1.101   1.212   1.129   1.308   1.019   1.094   1.248   1.282   1.173   1.216   1.083   1.164   1.006   1.234   1.154   1.307   1.266   1.413   1.304   1.409   1.194   1.185   1.223   1.293   1.253   1.189   1.357   1.412   1.169   1.320   1.165   1.040   1.237   1.599   1.953   1.856   1.658   1.424   1.256   1.480   1.604   1.328   1.032   0.982
   183.67    1.027   1.118   0.983   1.085   1.227   1.169   1.187   1.208   1.366   1.460   1.724   1.584   1.600   1.366   1.358   1.320   1.316   1.193   1.082   1.069   1.274   1.328   1.127   1.299   1.417   1.154   1.378   1.329   1.080   1.210   1.235   1.486   1.598   1.490   1.346   1.252   1.294   1.104   0.961   1.209   0.967   1.009   0.911   0.919   1.010   1.215   1.297   1.333   1.215   1.512   1.522   1.415   1.524   1.681   1.638   1.181   1.215   1.148   1.012   0.803   1.153   0.965   1.032   0.930   1.107   1.029   1.014   0.852   1.016   1.015   1.059   0.953   1.001   0.954   0.905   1.014   1.000   0.877   1.045   0.856   0.764   1.028   0.913   0.939   1.306   1.583   1.550   1.288   1.302   1.334   1.250   1.316   1.132   0.905   1.034   0.904   0.926   0.869   0.944   1.320   1.340   0.923   0.845   1.007   0.837   1.155   0.958   1.007   1.030   1.253   1.279   1.169   1.114   0.779   1.060   1.266   1.071   0.973   0.859   1.047   1.009   1.024   0.952   0.921   1.019   1.032   0.950   1.087   0.968   1.158   1.476   1.490   1.546   1.387   1.709   1.347   1.603   1.287   1.498   1.572   1.471   1.328   1.076   1.047   1.054   1.221   1.253   1.320   1.415   1.271   1.400   1.668   1.357   1.408   1.534   1.322   1.250   1.210   1.339   1.313   1.309   1.234   1.113   1.099   0.969   0.953   0.933   0.830   0.779   0.944   1.246   1.235   1.226   1.116   0.935   0.974   1.239   1.218   1.098   0.946   1.003   0.872   1.013   1.189   1.474   1.485   1.402   1.422   1.167   1.067   1.014   1.080   0.908   0.802   1.039   0.748   0.703   0.742   1.111   1.313   1.226   0.903   0.944   0.997   1.150   1.029   1.195   1.140   1.145   1.195   1.474   1.215   1.195   1.185   1.282   1.288   1.196   1.166   0.947   0.985   1.201   1.358   1.185   1.204   1.407   1.202   0.978   1.093   1.299   0.920   0.896   1.041   0.751   0.954   1.118   1.171   0.944   1.042   0.972   1.046   1.036   1.232   1.410   1.030   0.940   1.274   1.188   1.228   1.231   1.377   1.242   1.296   1.361   1.179   1.440   1.460   1.358   1.190   1.164   0.922   0.913   1.034   1.032   1.112   1.311   1.283   1.223   1.163   1.003   0.929   0.766   0.964   0.946   0.917   1.075   1.269   1.348   1.402   1.180   1.195   1.332   1.666   1.616   1.642   1.343   1.308   1.173   1.165   0.964   1.034   1.076   1.267   1.062   1.345   1.209   1.099   1.150   1.418   1.325   1.072   0.742   0.842   0.950   1.198   1.130   0.949   0.929   0.918   1.186   1.128   1.220   1.135   1.161   1.207   0.962   1.158   1.182   1.013   0.801   0.961   1.045   0.974   1.024   0.860   1.032   1.306   1.572   1.425   1.331   1.048   1.292   1.198   1.122   0.855   0.840   1.059   1.092   0.982   0.763   0.834   0.928   0.955   0.873   1.041   1.118   1.015   1.075   1.315   1.352   1.179   1.186   0.895   0.873   1.098   1.095   1.170   1.234   1.162   1.173   1.143   0.920   0.932   1.065   1.086   1.016   1.088   1.542   1.601   1.503   1.358   1.569   1.763   1.305   1.381   1.604   1.455   1.275   1.133   1.181   1.499   1.234   1.268   1.094   1.094   1.016   0.855   1.023   1.222   1.250   1.362   1.268   1.461   1.361   1.266   1.250   1.550   1.314   1.646   1.773   1.903   1.678   1.894   1.622   1.491   1.394   0.914   0.815   0.941   1.026   0.877   1.049   1.434   1.305   1.090   1.200   1.081   1.199   1.173   1.036   1.022   1.025   0.809   1.192   1.025   1.048   1.045   1.051   1.084   1.404   1.365   1.378   1.230   1.172   1.095   0.986   0.860   0.674   1.116   1.087   1.185   1.139   1.339   1.173   1.120   1.196   0.839   0.793   0.833   0.985   0.981   1.057   1.151   1.326   0.878   0.950   1.166   1.092   1.156   0.933   0.984   1.244   1.170   1.158   1.218   1.036   1.006   0.729   0.918   1.068   1.149   1.210   1.263   1.337   1.231   1.358   1.242   1.164   1.151   1.120   1.137   1.047   1.063   1.078   1.124   1.102   1.177   1.398   1.459   1.406   1.511   1.791   1.615   1.609   1.865   1.451   1.608   1.430   1.281   1.078   0.871
   178.57    1.217   1.165   1.068   1.095   1.266   1.090   1.132   1.222   1.276   1.478   1.790   1.648   1.775   1.715   1.345   1.198   1.158   1.330   1.519   1.398   1.315   1.607   1.532   1.703   1.376   1.169   1.287   1.336   0.991   1.134   1.250   1.301   1.332   1.206   1.006   1.013   0.978   1.175   1.273   1.220   1.082   0.990   1.184   0.962   0.989   1.188   1.241   1.352   1.529   1.424   1.269   1.514   1.740   1.581   1.265   1.434   1.266   1.281   1.041   1.009   1.155   1.316   1.160   1.124   0.941   1.094   1.081   0.909   0.981   1.273   1.277   1.050   0.990   1.033   1.128   1.052   0.954   0.997   1.005   0.940   1.006   1.089   0.793   0.959   1.159   1.381   1.285   1.412   1.332   1.351   1.324   1.059   1.088   0.954   0.968   0.935   0.960   1.102   1.038   1.191   1.267   1.098   0.971   1.123   1.047   1.093   0.931   0.962   0.992   0.943   1.137   0.779   0.956   0.836   1.007   1.077   0.978   0.986   0.929   1.083   1.023   0.938   0.881   0.884   0.993   1.175   1.115   1.205   1.247   1.477   1.462   1.542   1.677   1.599   1.673   1.293   1.424   1.413   1.558   1.544   1.350   1.273   0.998   1.101   1.331   1.113   1.260   1.560   1.562   1.533   1.425   1.463   1.600   1.756   1.600   1.297   1.071   1.265   1.372   1.347   1.245   0.971   1.036   0.991   0.906   0.889   0.676   0.856   0.764   0.974   1.165   0.916   1.137   0.961   1.061   0.958   1.127   1.170   1.060   1.012   1.019   1.097   1.140   1.238   1.315   1.420   1.292   1.365   1.012   1.180   1.015   1.088   1.335   1.323   1.207   1.017   0.991   1.044   1.279   1.450   0.952   1.185   0.844   0.711   0.917   1.069   0.796   0.874   1.101   1.435   1.595   1.384   1.119   1.129   1.324   1.179   1.169   1.244   0.973   1.075   1.305   1.135   1.366   1.208   1.400   1.293   1.011   1.003   1.064   0.978   0.879   0.789   0.845   0.942   1.013   1.068   0.991   1.022   1.228   1.306   1.168   1.163   1.258   0.916   0.840   1.194   1.294   1.535   1.224   1.128   1.087   1.477   1.251   1.366   1.260   1.329   1.182   1.233   1.072   0.870   1.098   1.120   0.934   0.902   1.167   1.255   1.094   1.158   0.918   0.886   0.996   0.798   1.012   0.946   1.255   1.254   1.207   1.261   1.174   1.245   1.479   1.560   1.425   1.256   1.528   1.390   1.084   1.368   1.054   1.081   1.096   1.119   1.013   1.043   1.142   1.071   1.310   1.439   1.148   1.148   0.974   0.961   1.316   1.122   1.163   1.038   1.057   0.922   1.140   1.114   0.899   0.876   1.026   1.116   1.165   0.972   1.085   1.199   1.061   0.838   1.101   1.079   1.037   1.156   1.000   1.027   1.267   1.287   1.445   1.075   0.961   1.165   1.120   0.997   0.902   1.039   1.016   0.874   0.714   0.965   1.181   1.197   1.040   0.963   0.996   1.057   1.064   1.293   1.269   1.339   1.411   0.974   0.885   1.087   0.915   1.170   1.231   0.933   1.067   1.193   0.852   0.752   0.801   0.793   1.042   1.207   1.284   1.447   1.124   1.317   1.490   1.621   1.377   1.402   1.494   1.277   1.367   1.507   1.514   1.325   1.508   1.424   0.953   1.232   1.200   0.789   1.172   1.369   1.607   1.383   1.495   1.404   1.344   1.365   1.235   1.319   1.623   1.493   1.545   1.574   1.845   1.831   1.432   1.276   1.117   0.980   1.131   0.937   1.070   1.225   1.190   1.134   1.133   0.919   0.876   1.106   1.277   1.005   1.066   0.930   1.098   0.997   1.186   1.239   1.076   1.120   1.200   1.397   1.340   1.334   1.081   1.046   0.899   0.972   1.056   0.753   0.887   1.185   1.224   1.321   1.159   1.107   1.248   1.216   0.906   0.870   0.794   0.879   1.093   0.970   0.958   1.153   1.166   1.079   1.026   1.204   1.436   0.951   1.008   0.944   1.010   1.099   1.028   1.221   1.134   1.215   1.070   1.073   0.977   1.009   1.123   1.274   1.243   1.360   1.337   1.415   1.352   1.100   1.165   0.958   1.087   1.057   0.780   0.909   1.033   1.053   1.377   1.140   1.064   1.325   1.484   1.605   1.940   2.026   1.562   1.594   1.460   1.302   1.083   0.811
   173.47    1.114   1.222   1.259   1.321   1.090   1.204   0.960   1.300   1.729   1.588   2.004   1.961   1.832   1.768   1.695   1.493   1.548   1.388   1.529   1.236   1.421   1.580   1.282   1.385   1.530   1.169   1.185   1.029   1.020   1.238   1.141   1.054   1.064   1.254   0.987   0.935   0.802   1.025   1.124   1.138   1.226   1.095   1.028   1.136   1.111   1.281   1.330   1.291   1.441   1.411   1.019   1.307   1.468   1.564   1.523   1.217   1.535   1.699   1.464   1.053   1.223   1.444   1.257   1.183   1.119   1.097   1.042   1.143   1.323   1.144   1.310   1.119   1.071   1.207   1.035   1.122   1.288   1.153   1.003   1.182   0.811   0.887   0.800   1.103   1.497   1.372   1.285   1.237   1.239   1.235   1.063   0.886   0.978   0.975   1.154   1.019   1.131   1.045   1.200   1.019   1.214   0.935   1.094   1.137   1.168   0.872   1.207   0.899   0.864   0.931   0.982   1.085   0.888   0.815   0.821   0.983   0.858   0.871   0.945   1.014   0.896   0.914   1.012   1.097   1.119   1.293   1.182   1.195   1.420   1.430   1.532   1.308   1.418   1.362   1.607   1.300   1.321   1.285   1.440   1.522   1.109   1.198   1.000   1.216   1.280   1.281   1.416   1.158   1.557   1.495   1.694   1.403   1.848   1.685   1.500   1.323   1.201   1.151   1.250   1.038   0.964   1.020   0.967   0.913   0.923   0.870   0.733   0.866   0.967   0.918   0.983   0.940   0.948   0.871   0.917   0.893   1.114   1.049   1.043   1.160   1.223   0.947   1.056   1.123   1.235   1.437   1.187   1.365   1.307   1.190   1.057   1.086   1.252   1.331   1.449   1.141   1.081   1.274   1.381   1.516   1.069   1.155   0.918   0.756   0.754   0.896   0.858   0.971   1.115   1.078   1.057   1.113   1.115   1.105   1.266   1.068   0.935   1.242   1.160   1.206   1.248   0.974   1.116   1.340   1.251   1.076   1.023   1.132   0.820   0.761   0.928   0.759   1.016   1.074   1.258   1.462   1.158   1.348   1.376   1.063   1.245   1.037   1.095   1.044   1.073   1.200   1.322   1.446   1.256   1.371   1.383   1.580   1.403   1.264   1.577   1.259   1.307   1.222   1.095   1.167   1.141   1.230   1.285   1.079   0.979   1.266   1.232   1.137   0.758   1.110   1.133   1.158   1.304   1.412   1.079   1.379   1.317   1.056   0.902   1.149   1.015   1.279   1.194   1.062   1.332   1.538   1.272   1.334   1.304   1.139   1.222   1.232   1.110   0.856   1.075   1.200   1.161   1.339   1.474   1.076   1.219   1.319   1.356   1.185   1.343   1.142   0.994   1.028   1.071   1.035   1.003   0.905   1.118   1.009   1.049   1.092   1.056   1.208   1.196   0.999   1.012   1.204   1.051   1.051   0.871   0.970   0.978   1.067   1.118   0.939   1.104   1.354   1.062   1.225   0.967   1.124   1.232   0.781   0.734   0.926   1.085   1.058   0.847   0.894   0.876   0.945   0.927   1.201   1.284   1.033   1.140   1.182   1.236   1.008   1.342   1.326   1.294   1.230   1.051   1.042   0.984   0.866   0.822   0.957   1.167   1.184   0.983   1.131   1.159   1.200   1.424   1.349   1.198   1.090   1.334   1.423   1.400   1.323   1.472   1.539   1.636   1.549   1.525   1.319   0.986   0.961   1.086   1.115   1.493   1.684   1.305   1.537   1.469   1.244   1.347   1.403   1.585   1.451   1.454   1.608   1.727   1.764   1.358   1.265   1.240   1.003   0.947   1.035   1.018   1.118   1.107   0.999   0.879   1.059   0.916   1.171   1.156   1.235   0.984   0.999   1.354   1.362   1.069   1.057   1.283   0.939   1.211   1.263   1.251   1.062   1.095   1.056   1.035   0.875   0.896   0.862   1.030   1.327   1.170   1.137   1.199   1.228   0.944   1.069   0.958   0.658   0.882   0.787   0.989   0.888   0.922   0.943   1.218   0.927   1.205   1.229   1.483   1.169   1.148   1.041   1.082   1.177   1.187   1.520   1.516   1.367   1.210   1.191   1.289   1.260   1.203   1.275   1.370   1.282   1.374   1.309   1.269   1.350   1.054   0.905   0.990   0.787   1.056   1.128   1.328   1.613   1.493   1.386   1.162   1.417   1.239   1.567   1.795   1.953   1.749   1.381   1.677   1.629   1.502   1.084
[...]
    15.31    0.767   0.767   0.767   0.767   0.767   0.767   0.767   0.767   0.767   0.767   0.767   0.767   0.767   0.767   0.767   0.767   0.767   0.767   0.767   0.767   0.767   0.767   0.767   0.767   0.767   0.767   0.767   0.767   0.767   0.767   0.767   0.767   0.767   0.767   0.767   0.767   0.767   0.767   0.767   0.767   0.767   0.767   0.767   0.767   0.767   0.767   0.767   0.767   0.767   0.767   0.767   0.767   0.767   0.767   0.767   0.767   0.767   0.767   0.767   0.767   0.767   0.767   0.767   0.767   0.767   0.767   0.767   0.767   0.767   0.767   0.767   0.767   0.767   0.767   0.767   0.767   0.767   0.767   0.767   0.767   0.767   0.767   0.767   0.767   0.767   0.767   0.767   0.767   0.767   0.767   0.767   0.767   0.767   0.767   0.767   0.767   0.767   0.767   0.767   0.767   0.767   0.767   0.767   0.767   0.767   0.767   0.767   0.767   0.767   0.767   0.767   0.767   0.767   0.767   0.767   0.767   0.767   0.767   0.767   0.767   0.767   0.767   0.767   0.767   0.767   0.767   0.767   0.767   0.767   0.767   0.767   0.767   0.767   0.767   0.767   0.767   0.767   0.767   0.767   0.767   0.767   0.767   0.767   0.767   0.767   0.767   0.767   0.767   0.767   0.767   0.767   0.767   0.767   0.767   0.767   0.767   0.767   0.767   0.767   0.767   0.767   0.767   0.767   0.767   0.767   0.767   0.767   0.767   0.767   0.767   0.767   0.767   0.767   0.767   0.767   0.767   0.767   0.767   0.767   0.767   0.767   0.767   0.767   0.767   0.767   0.767   0.767   0.767   0.767   0.767   0.767   0.767   0.767   0.767   0.767   0.767   0.767   0.767   0.767   0.767   0.767   0.767   0.767   0.767   0.767   0.767   0.767   0.767   0.767   0.767   0.767   0.767   0.767   0.767   0.767   0.767   0.767   0.767   0.767   0.767   0.767   0.767   0.767   0.767   0.767   0.767   0.767   0.767   0.767   0.767   0.767   0.767   0.767   0.767   0.767   0.767   0.767   0.767   0.767   0.767   0.767   0.767   0.767   0.767   0.767   0.767   0.767   0.767   0.767   0.767   0.767   0.767   0.767   0.767   0.767   0.767   0.767   0.767   0.767   0.767   0.767   0.767   0.767   0.767   0.767   0.767   0.767   0.767   0.767   0.767   0.767   0.767   0.767   0.767   0.767   0.767   0.767   0.767   0.767   0.767   0.767   0.767   0.767   0.767   0.767   0.767   0.767   0.767   0.767   0.767   0.767   0.767   0.767   0.767   0.767   0.767   0.767   0.767   0.767   0.767   0.767   0.767   0.767   0.767   0.767   0.767   0.767   0.767   0.767   0.767   0.767   0.767   0.767   0.767   0.767   0.767   0.767   0.767   0.767   0.767   0.767   0.767   0.767   0.767   0.767   0.767   0.767   0.767   0.767   0.767   0.767   0.767   0.767   0.767   0.767   0.767   0.767   0.767   0.767   0.767   0.767   0.767   0.767   0.767   0.767   0.767   0.767   0.767   0.767   0.767   0.767   0.767   0.767   0.767   0.767   0.767   0.767   0.767   0.767   0.767   0.767   0.767   0.767   0.767   0.767   0.767   0.767   0.767   0.767   0.767   0.767   0.767   0.767   0.767   0.767   0.767   0.767   0.767   0.767   0.767   0.767   0.767   0.767   0.767   0.767   0.767   0.767   0.767   0.767   0.767   0.767   0.767   0.767   0.767   0.767   0.767   0.767   0.767   0.767   0.767   0.767   0.767   0.767   0.767   0.767   0.767   0.767   0.767   0.767   0.767   0.767   0.767   0.767   0.767   0.767   0.767   0.767   0.767   0.767   0.767   0.767   0.767   0.767   0.767   0.767   0.767   0.767   0.767   0.767   0.767   0.767   0.767   0.767   0.767   0.767   0.767   0.767   0.767   0.767   0.767   0.767   0.767   0.767   0.767   0.767   0.767   0.767   0.767   0.767   0.767   0.767   0.767   0.767   0.767   0.767   0.767   0.767   0.767   0.767   0.767   0.767   0.767   0.767   0.767   0.767   0.767   0.767   0.767   0.767   0.767   0.767   0.767   0.767   0.767   0.767   0.767   0.767   0.767   0.767   0.767   0.767   0.767   0.767   0.767   0.767   0.767   0.767   0.767   0.767   0.767   0.767   0.767   0.767   0.767   0.767   0.767   0.767   0.767   0.767   0.767
    10.20    0.767   0.767   0.767   0.767   0.767   0.767   0.767   0.767   0.767   0.767   0.767   0.767   0.767   0.767   0.767   0.767   0.767   0.767   0.767   0.767   0.767   0.767   0.767   0.767   0.767   0.767   0.767   0.767   0.767   0.767   0.767   0.767   0.767   0.767   0.767   0.767   0.767   0.767   0.767   0.767   0.767   0.767   0.767   0.767   0.767   0.767   0.767   0.767   0.767   0.767   0.767   0.767   0.767   0.767   0.767   0.767   0.767   0.767   0.767   0.767   0.767   0.767   0.767   0.767   0.767   0.767   0.767   0.767   0.767   0.767   0.767   0.767   0.767   0.767   0.767   0.767   0.767   0.767   0.767   0.767   0.767   0.767   0.767   0.767   0.767   0.767   0.767   0.767   0.767   0.767   0.767   0.767   0.767   0.767   0.767   0.767   0.767   0.767   0.767   0.767   0.767   0.767   0.767   0.767   0.767   0.767   0.767   0.767   0.767   0.767   0.767   0.767   0.767   0.767   0.767   0.767   0.767   0.767   0.767   0.767   0.767   0.767   0.767   0.767   0.767   0.767   0.767   0.767   0.767   0.767   0.767   0.767   0.767   0.767   0.767   0.767   0.767   0.767   0.767   0.767   0.767   0.767   0.767   0.767   0.767   0.767   0.767   0.767   0.767   0.767   0.767   0.767   0.767   0.767   0.767   0.767   0.767   0.767   0.767   0.767   0.767   0.767   0.767   0.767   0.767   0.767   0.767   0.767   0.767   0.767   0.767   0.767   0.767   0.767   0.767   0.767   0.767   0.767   0.767   0.767   0.767   0.767   0.767   0.767   0.767   0.767   0.767   0.767   0.767   0.767   0.767   0.767   0.767   0.767   0.767   0.767   0.767   0.767   0.767   0.767   0.767   0.767   0.767   0.767   0.767   0.767   0.767   0.767   0.767   0.767   0.767   0.767   0.767   0.767   0.767   0.767   0.767   0.767   0.767   0.767   0.767   0.767   0.767   0.767   0.767   0.767   0.767   0.767   0.767   0.767   0.767   0.767   0.767   0.767   0.767   0.767   0.767   0.767   0.767   0.767   0.767   0.767   0.767   0.767   0.767   0.767   0.767   0.767   0.767   0.767   0.767   0.767   0.767   0.767   0.767   0.767   0.767   0.767   0.767   0.767   0.767   0.767   0.767   0.767   0.767   0.767   0.767   0.767   0.767   0.767   0.767   0.767   0.767   0.767   0.767   0.767   0.767   0.767   0.767   0.767   0.767   0.767   0.767   0.767   0.767   0.767   0.767   0.767   0.767   0.767   0.767   0.767   0.767   0.767   0.767   0.767   0.767   0.767   0.767   0.767   0.767   0.767   0.767   0.767   0.767   0.767   0.767   0.767   0.767   0.767   0.767   0.767   0.767   0.767   0.767   0.767   0.767   0.767   0.767   0.767   0.767   0.767   0.767   0.767   0.767   0.767   0.767   0.767   0.767   0.767   0.767   0.767   0.767   0.767   0.767   0.767   0.767   0.767   0.767   0.767   0.767   0.767   0.767   0.767   0.767   0.767   0.767   0.767   0.767   0.767   0.767   0.767   0.767   0.767   0.767   0.767   0.767   0.767   0.767   0.767   0.767   0.767   0.767   0.767   0.767   0.767   0.767   0.767   0.767   0.767   0.767   0.767   0.767   0.767   0.767   0.767   0.767   0.767   0.767   0.767   0.767   0.767   0.767   0.767   0.767   0.767   0.767   0.767   0.767   0.767   0.767   0.767   0.767   0.767   0.767   0.767   0.767   0.767   0.767   0.767   0.767   0.767   0.767   0.767   0.767   0.767   0.767   0.767   0.767   0.767   0.767   0.767   0.767   0.767   0.767   0.767   0.767   0.767   0.767   0.767   0.767   0.767   0.767   0.767   0.767   0.767   0.767   0.767   0.767   0.767   0.767   0.767   0.767   0.767   0.767   0.767   0.767   0.767   0.767   0.767   0.767   0.767   0.767   0.767   0.767   0.767   0.767   0.767   0.767   0.767   0.767   0.767   0.767   0.767   0.767   0.767   0.767   0.767   0.767   0.767   0.767   0.767   0.767   0.767   0.767   0.767   0.767   0.767   0.767   0.767   0.767   0.767   0.767   0.767   0.767   0.767   0.767   0.767   0.767   0.767   0.767   0.767   0.767   0.767   0.767   0.767   0.767   0.767   0.767   0.767   0.767   0.767   0.767   0.767   0.767   0.767   0.767   0.767   0.767   0.767
     5.10    0.767   0.767   0.767   0.767   0.767   0.767   0.767   0.767   0.767   0.767   0.767   0.767   0.767   0.767   0.767   0.767   0.767   0.767   0.767   0.767   0.767   0.767   0.767   0.767   0.767   0.767   0.767   0.767   0.767   0.767   0.767   0.767   0.767   0.767   0.767   0.767   0.767   0.767   0.767   0.767   0.767   0.767   0.767   0.767   0.767   0.767   0.767   0.767   0.767   0.767   0.767   0.767   0.767   0.767   0.767   0.767   0.767   0.767   0.767   0.767   0.767   0.767   0.767   0.767   0.767   0.767   0.767   0.767   0.767   0.767   0.767   0.767   0.767   0.767   0.767   0.767   0.767   0.767   0.767   0.767   0.767   0.767   0.767   0.767   0.767   0.767   0.767   0.767   0.767   0.767   0.767   0.767   0.767   0.767   0.767   0.767   0.767   0.767   0.767   0.767   0.767   0.767   0.767   0.767   0.767   0.767   0.767   0.767   0.767   0.767   0.767   0.767   0.767   0.767   0.767   0.767   0.767   0.767   0.767   0.767   0.767   0.767   0.767   0.767   0.767   0.767   0.767   0.767   0.767   0.767   0.767   0.767   0.767   0.767   0.767   0.767   0.767   0.767   0.767   0.767   0.767   0.767   0.767   0.767   0.767   0.767   0.767   0.767   0.767   0.767   0.767   0.767   0.767   0.767   0.767   0.767   0.767   0.767   0.767   0.767   0.767   0.767   0.767   0.767   0.767   0.767   0.767   0.767   0.767   0.767   0.767   0.767   0.767   0.767   0.767   0.767   0.767   0.767   0.767   0.767   0.767   0.767   0.767   0.767   0.767   0.767   0.767   0.767   0.767   0.767   0.767   0.767   0.767   0.767   0.767   0.767   0.767   0.767   0.767   0.767   0.767   0.767   0.767   0.767   0.767   0.767   0.767   0.767   0.767   0.767   0.767   0.767   0.767   0.767   0.767   0.767   0.767   0.767   0.767   0.767   0.767   0.767   0.767   0.767   0.767   0.767   0.767   0.767   0.767   0.767   0.767   0.767   0.767   0.767   0.767   0.767   0.767   0.767   0.767   0.767   0.767   0.767   0.767   0.767   0.767   0.767   0.767   0.767   0.767   0.767   0.767   0.767   0.767   0.767   0.767   0.767   0.767   0.767   0.767   0.767   0.767   0.767   0.767   0.767   0.767   0.767   0.767   0.767   0.767   0.767   0.767   0.767   0.767   0.767   0.767   0.767   0.767   0.767   0.767   0.767   0.767   0.767   0.767   0.767   0.767   0.767   0.767   0.767   0.767   0.767   0.767   0.767   0.767   0.767   0.767   0.767   0.767   0.767   0.767   0.767   0.767   0.767   0.767   0.767   0.767   0.767   0.767   0.767   0.767   0.767   0.767   0.767   0.767   0.767   0.767   0.767   0.767   0.767   0.767   0.767   0.767   0.767   0.767   0.767   0.767   0.767   0.767   0.767   0.767   0.767   0.767   0.767   0.767   0.767   0.767   0.767   0.767   0.767   0.767   0.767   0.767   0.767   0.767   0.767   0.767   0.767   0.767   0.767   0.767   0.767   0.767   0.767   0.767   0.767   0.767   0.767   0.767   0.767   0.767   0.767   0.767   0.767   0.767   0.767   0.767   0.767   0.767   0.767   0.767   0.767   0.767   0.767   0.767   0.767   0.767   0.767   0.767   0.767   0.767   0.767   0.767   0.767   0.767   0.767   0.767   0.767   0.767   0.767   0.767   0.767   0.767   0.767   0.767   0.767   0.767   0.767   0.767   0.767   0.767   0.767   0.767   0.767   0.767   0.767   0.767   0.767   0.767   0.767   0.767   0.767   0.767   0.767   0.767   0.767   0.767   0.767   0.767   0.767   0.767   0.767   0.767   0.767   0.767   0.767   0.767   0.767   0.767   0.767   0.767   0.767   0.767   0.767   0.767   0.767   0.767   0.767   0.767   0.767   0.767   0.767   0.767   0.767   0.767   0.767   0.767   0.767   0.767   0.767   0.767   0.767   0.767   0.767   0.767   0.767   0.767   0.767   0.767   0.767   0.767   0.767   0.767   0.767   0.767   0.767   0.767   0.767   0.767   0.767   0.767   0.767   0.767   0.767   0.767   0.767   0.767   0.767   0.767   0.767   0.767   0.767   0.767   0.767   0.767   0.767   0.767   0.767   0.767   0.767   0.767   0.767   0.767   0.767   0.767   0.767   0.767   0.767   0.767   0.767   0.767   0.767
     0.00    0.767   0.767   0.767   0.767   0.767   0.767   0.767   0.767   0.767   0.767   0.767   0.767   0.767   0.767   0.767   0.767   0.767   0.767   0.767   0.767   0.767   0.767   0.767   0.767   0.767   0.767   0.767   0.767   0.767   0.767   0.767   0.767   0.767   0.767   0.767   0.767   0.767   0.767   0.767   0.767   0.767   0.767   0.767   0.767   0.767   0.767   0.767   0.767   0.767   0.767   0.767   0.767   0.767   0.767   0.767   0.767   0.767   0.767   0.767   0.767   0.767   0.767   0.767   0.767   0.767   0.767   0.767   0.767   0.767   0.767   0.767   0.767   0.767   0.767   0.767   0.767   0.767   0.767   0.767   0.767   0.767   0.767   0.767   0.767   0.767   0.767   0.767   0.767   0.767   0.767   0.767   0.767   0.767   0.767   0.767   0.767   0.767   0.767   0.767   0.767   0.767   0.767   0.767   0.767   0.767   0.767   0.767   0.767   0.767   0.767   0.767   0.767   0.767   0.767   0.767   0.767   0.767   0.767   0.767   0.767   0.767   0.767   0.767   0.767   0.767   0.767   0.767   0.767   0.767   0.767   0.767   0.767   0.767   0.767   0.767   0.767   0.767   0.767   0.767   0.767   0.767   0.767   0.767   0.767   0.767   0.767   0.767   0.767   0.767   0.767   0.767   0.767   0.767   0.767   0.767   0.767   0.767   0.767   0.767   0.767   0.767   0.767   0.767   0.767   0.767   0.767   0.767   0.767   0.767   0.767   0.767   0.767   0.767   0.767   0.767   0.767   0.767   0.767   0.767   0.767   0.767   0.767   0.767   0.767   0.767   0.767   0.767   0.767   0.767   0.767   0.767   0.767   0.767   0.767   0.767   0.767   0.767   0.767   0.767   0.767   0.767   0.767   0.767   0.767   0.767   0.767   0.767   0.767   0.767   0.767   0.767   0.767   0.767   0.767   0.767   0.767   0.767   0.767   0.767   0.767   0.767   0.767   0.767   0.767   0.767   0.767   0.767   0.767   0.767   0.767   0.767   0.767   0.767   0.767   0.767   0.767   0.767   0.767   0.767   0.767   0.767   0.767   0.767   0.767   0.767   0.767   0.767   0.767   0.767   0.767   0.767   0.767   0.767   0.767   0.767   0.767   0.767   0.767   0.767   0.767   0.767   0.767   0.767   0.767   0.767   0.767   0.767   0.767   0.767   0.767   0.767   0.767   0.767   0.767   0.767   0.767   0.767   0.767   0.767   0.767   0.767   0.767   0.767   0.767   0.767   0.767   0.767   0.767   0.767   0.767   0.767   0.767   0.767   0.767   0.767   0.767   0.767   0.767   0.767   0.767   0.767   0.767   0.767   0.767   0.767   0.767   0.767   0.767   0.767   0.767   0.767   0.767   0.767   0.767   0.767   0.767   0.767   0.767   0.767   0.767   0.767   0.767   0.767   0.767   0.767   0.767   0.767   0.767   0.767   0.767   0.767   0.767   0.767   0.767   0.767   0.767   0.767   0.767   0.767   0.767   0.767   0.767   0.767   0.767   0.767   0.767   0.767   0.767   0.767   0.767   0.767   0.767   0.767   0.767   0.767   0.767   0.767   0.767   0.767   0.767   0.767   0.767   0.767   0.767   0.767   0.767   0.767   0.767   0.767   0.767   0.767   0.767   0.767   0.767   0.767   0.767   0.767   0.767   0.767   0.767   0.767   0.767   0.767   0.767   0.767   0.767   0.767   0.767   0.767   0.767   0.767   0.767   0.767   0.767   0.767   0.767   0.767   0.767   0.767   0.767   0.767   0.767   0.767   0.767   0.767   0.767   0.767   0.767   0.767   0.767   0.767   0.767   0.767   0.767   0.767   0.767   0.767   0.767   0.767   0.767   0.767   0.767   0.767   0.767   0.767   0.767   0.767   0.767   0.767   0.767   0.767   0.767   0.767   0.767   0.767   0.767   0.767   0.767   0.767   0.767   0.767   0.767   0.767   0.767   0.767   0.767   0.767   0.767   0.767   0.767   0.767   0.767   0.767   0.767   0.767   0.767   0.767   0.767   0.767   0.767   0.767   0.767   0.767   0.767   0.767   0.767   0.767   0.767   0.767   0.767   0.767   0.767   0.767   0.767   0.767   0.767   0.767   0.767   0.767   0.767   0.767   0.767   0.767   0.767   0.767   0.767   0.767   0.767   0.767   0.767   0.767   0.767   0.767   0.767   0.767   0.767   0.767   0.767   0.767   0.767

   Mean standard deviation across all grid points:
      u component:    1.212 m/s
      v component:    1.173 m/s
      w component:    0.767 m/s


U-component (X) statistics from the interpolated hub point:

   Mean =   7.3615 m/s
   TI   =  16.8362 %


Processing complete.  5405.5 CPU seconds used.
