
This summary file was generated by TurbSim (from OpenFAST-v4.2.0) on 11-Feb-2026 at 14:35:17.


ERROR:  ReadInputFile:OpenFInpFile:The input file, "TurbSim.inp", was not found.

ABORTING PROGRAM.
