
This summary file was generated by TurbSim (from OpenFAST-v4.2.0) on 01-Apr-2026 at 15:42:27.


Runtime Options:

-610562884  Random seed #1
    RANLUX  Type of random number generator
         F  Output binary HH turbulence parameters?
         F  Output formatted turbulence parameters?
         F  Output AeroDyn HH files?
         T  Output AeroDyn FF files?
         F  Output BLADED FF files?
         F  Output tower data?
         F  Output HAWC FF files?
         T  Output formatted FF files?
         F  Output coherent turbulence time step file?
 0 -  NONE  IEC turbulence models scaled to exact specified standard deviation


Turbine/Model Specifications:

        30  Vertical grid-point matrix dimension
       400  Horizontal grid-point matrix dimension
     0.100  Time step [seconds]
  2100.000  Analysis time [seconds]
  2100.000  Usable output time [seconds]
   150.000  Hub height [m]
   300.000  Grid height [m]
  4000.000  Grid width [m]
     0.000  Vertical flow angle [degrees]
     0.000  Horizontal flow angle [degrees]


Meteorological Boundary Conditions:

    IECKAI  IEC Kaimal spectral model
         1  IEC standard: IEC 61400-1 Ed. 3: 2005
         A  IEC turbulence characteristic
       NTM  IEC Normal Turbulence Model
       N/A  IEC Extreme Turbulence Model (ETM) "c" parameter [m/s]
       PL   Wind profile type
    90.000  Reference height [m]
    11.000  Reference wind speed [m/s]
       N/A  Jet height [m]
     0.200  Power law exponent
     0.030  Surface roughness length [m]


Non-IEC Meteorological Boundary Conditions:

       N/A  Site latitude [degrees]
       N/A  Gradient Richardson number
       N/A  Friction or shear velocity [m/s]
       N/A  Mixing layer depth [m]
       N/A  Mean hub u'w' Reynolds stress
       N/A  Mean hub u'v' Reynolds stress
       N/A  Mean hub v'w' Reynolds stress


Spatial Coherence Models:

       IEC  u-component coherence model
      NONE  v-component coherence model
      NONE  w-component coherence model
(   12.000, 0.353E-03)  u-component coherence parameters
                   N/A  v-component coherence parameters
                   N/A  w-component coherence parameters
       N/A  Coherence exponent


You have requested that the following file(s) be generated:

   TurbSim3.bts (AeroDyn/TurbSim full-field wind file)
   TurbSim3.u (formatted full-field U-component file)
   TurbSim3.v (formatted full-field V-component file)
   TurbSim3.w (formatted full-field W-component file)


Turbulence Simulation Scaling Parameter Summary:

   Turbulence model used                            =  IEC Kaimal
   Turbulence characteristic                        =  A
   IEC turbulence type                              =  Normal Turbulence Model
   IEC standard                                     =  IEC 61400-1 Ed. 3: 2005
   Mean wind speed at hub height                    =   12.183 m/s
   Expected value of turbulence intensity at 15 m/s =   16.000%
   Characteristic value of standard deviation       =    2.358 m/s
   Turbulence scale                                 =   42.000 m
   u-component integral scale                       =  340.200 m
   Coherency scale                                  =  340.200 m
   Characteristic value of hub turbulence intensity =   19.354%
   Gradient Richardson number                       =    0.000

   Wind profile type                                =  Power law
   Power law exponent                               =    0.200
   Mean shear across rotor disk                     =    0.047 (m/s)/m
   Assumed rotor diameter                           =  300.000 m
   Surface roughness length                         =    0.030 m

   Nyquist frequency of turbulent wind field        =    5.000 Hz

   Number of time steps in the FFT                  =    21000
   Number of time steps output                      =    21000
   Number of points simulated                       =    12001


Mean Flow Angles:

   Vertical   =   0.0 degrees
   Horizontal =   0.0 degrees

Mean Wind Speed Profile:

   Height    Wind Speed   Horizontal Angle  Vertical Angle  U-comp (X)   V-comp (Y)   W-comp (Z)
     (m)        (m/s)         (degrees)       (degrees)       (m/s)        (m/s)        (m/s)   
   ------    ----------   ----------------  --------------  ----------   ----------   ----------
    300.0       13.99            0.00            0.00         13.99         0.00         0.00
    289.7       13.90            0.00            0.00         13.90         0.00         0.00
    279.3       13.80            0.00            0.00         13.80         0.00         0.00
    269.0       13.69            0.00            0.00         13.69         0.00         0.00
    258.6       13.59            0.00            0.00         13.59         0.00         0.00
    248.3       13.48            0.00            0.00         13.48         0.00         0.00
    237.9       13.36            0.00            0.00         13.36         0.00         0.00
    227.6       13.24            0.00            0.00         13.24         0.00         0.00
    217.2       13.12            0.00            0.00         13.12         0.00         0.00
    206.9       12.99            0.00            0.00         12.99         0.00         0.00
    196.6       12.86            0.00            0.00         12.86         0.00         0.00
    186.2       12.72            0.00            0.00         12.72         0.00         0.00
    175.9       12.58            0.00            0.00         12.58         0.00         0.00
    165.5       12.43            0.00            0.00         12.43         0.00         0.00
    155.2       12.27            0.00            0.00         12.27         0.00         0.00
    150.0       12.18            0.00            0.00         12.18         0.00         0.00
    144.8       12.10            0.00            0.00         12.10         0.00         0.00
    134.5       11.92            0.00            0.00         11.92         0.00         0.00
    124.1       11.73            0.00            0.00         11.73         0.00         0.00
    113.8       11.53            0.00            0.00         11.53         0.00         0.00
    103.4       11.31            0.00            0.00         11.31         0.00         0.00
     93.1       11.07            0.00            0.00         11.07         0.00         0.00
     82.8       10.82            0.00            0.00         10.82         0.00         0.00
     72.4       10.53            0.00            0.00         10.53         0.00         0.00
     62.1       10.21            0.00            0.00         10.21         0.00         0.00
     51.7        9.85            0.00            0.00          9.85         0.00         0.00
     41.4        9.42            0.00            0.00          9.42         0.00         0.00
     31.0        8.89            0.00            0.00          8.89         0.00         0.00
     20.7        8.20            0.00            0.00          8.20         0.00         0.00
     10.3        7.14            0.00            0.00          7.14         0.00         0.00
      0.0        0.71            0.00            0.00          0.71         0.00         0.00


Harvested Random Seeds after Generation of the Random Numbers:

   -782424708 K 1
            0 K 2


Hub-Height Simulated Turbulence Statistical Summary:

   Type of Wind        Min (m/s)   Mean (m/s)    Max (m/s)  Sigma (m/s)       TI (%)
   ----------------    ---------   ----------    ---------  -----------       ------
   Longitudinal (u)         3.95        12.18        19.33        2.214       18.173
   Lateral (v)             -8.09        -0.00         7.03        1.856       15.233
   Vertical (w)            -4.13         0.00         4.58        1.142        9.375
   U component              3.95        12.18        19.33        2.214       18.173
   V component             -8.09        -0.00         7.03        1.856       15.233
   W component             -4.13         0.00         4.58        1.142        9.375
   Horizontal (U&V)         4.80        12.32        19.36        2.207       17.911
   Total                    4.85        12.38        19.37        2.196       17.741

                       Min Reynolds     Mean Reynolds    Max Reynolds    Correlation
   Product             Stress (m/s)^2   Stress (m/s)^2   Stress (m/s)^2  Coefficient
   ----------------    --------------   --------------   --------------  -----------
   u'w'                    -18.121             0.099            23.396         0.039
   u'v'                    -32.706             0.039            30.715         0.010
   v'w'                    -17.545             0.022            12.872         0.010


   Friction Velocity (Ustar)  =      0.314 m/s
   Maximum Instantaneous TKE  =     43.147 (m/s)^2
   Maximum Instantaneous CTKE =     18.419 (m/s)^2


Grid Point Variance Summary:

   Y-coord-2000.00-1989.97-1979.95-1969.92-1959.90-1949.87-1939.85-1929.82-1919.80-1909.77-1899.75-1889.72-1879.70-1869.67-1859.65-1849.62-1839.60-1829.57-1819.55-1809.52-1799.50-1789.47-1779.45-1769.42-1759.40-1749.37-1739.35-1729.32-1719.30-1709.27-1699.25-1689.22-1679.20-1669.17-1659.15-1649.12-1639.10-1629.07-1619.05-1609.02-1599.00-1588.97-1578.95-1568.92-1558.90-1548.87-1538.85-1528.82-1518.80-1508.77-1498.75-1488.72-1478.70-1468.67-1458.65-1448.62-1438.60-1428.57-1418.55-1408.52-1398.50-1388.47-1378.45-1368.42-1358.40-1348.37-1338.35-1328.32-1318.30-1308.27-1298.25-1288.22-1278.20-1268.17-1258.15-1248.12-1238.10-1228.07-1218.05-1208.02-1197.99-1187.97-1177.94-1167.92-1157.89-1147.87-1137.84-1127.82-1117.79-1107.77-1097.74-1087.72-1077.69-1067.67-1057.64-1047.62-1037.59-1027.57-1017.54-1007.52 -997.49 -987.47 -977.44 -967.42 -957.39 -947.37 -937.34 -927.32 -917.29 -907.27 -897.24 -887.22 -877.19 -867.17 -857.14 -847.12 -837.09 -827.07 -817.04 -807.02 -796.99 -786.97 -776.94 -766.92 -756.89 -746.87 -736.84 -726.82 -716.79 -706.77 -696.74 -686.72 -676.69 -666.67 -656.64 -646.62 -636.59 -626.57 -616.54 -606.52 -596.49 -586.47 -576.44 -566.42 -556.39 -546.37 -536.34 -526.32 -516.29 -506.27 -496.24 -486.22 -476.19 -466.17 -456.14 -446.12 -436.09 -426.07 -416.04 -406.02 -395.99 -385.96 -375.94 -365.91 -355.89 -345.86 -335.84 -325.81 -315.79 -305.76 -295.74 -285.71 -275.69 -265.66 -255.64 -245.61 -235.59 -225.56 -215.54 -205.51 -195.49 -185.46 -175.44 -165.41 -155.39 -145.36 -135.34 -125.31 -115.29 -105.26  -95.24  -85.21  -75.19  -65.16  -55.14  -45.11  -35.09  -25.06  -15.04   -5.01    5.01   15.04   25.06   35.09   45.11   55.14   65.16   75.19   85.21   95.24  105.26  115.29  125.31  135.34  145.36  155.39  165.41  175.44  185.46  195.49  205.51  215.54  225.56  235.59  245.61  255.64  265.66  275.69  285.71  295.74  305.76  315.79  325.81  335.84  345.86  355.89  365.91  375.94  385.96  395.99  406.02  416.04  426.07  436.09  446.12  456.14  466.17  476.19  486.22  496.24  506.27  516.29  526.32  536.34  546.37  556.39  566.42  576.44  586.47  596.49  606.52  616.54  626.57  636.59  646.62  656.64  666.67  676.69  686.72  696.74  706.77  716.79  726.82  736.84  746.87  756.89  766.92  776.94  786.97  796.99  807.02  817.04  827.07  837.09  847.12  857.14  867.17  877.19  887.22  897.24  907.27  917.29  927.32  937.34  947.37  957.39  967.42  977.44  987.47  997.49 1007.52 1017.54 1027.57 1037.59 1047.62 1057.64 1067.67 1077.69 1087.72 1097.74 1107.77 1117.79 1127.82 1137.84 1147.87 1157.89 1167.92 1177.94 1187.97 1197.99 1208.02 1218.05 1228.07 1238.10 1248.12 1258.15 1268.17 1278.20 1288.22 1298.25 1308.27 1318.30 1328.32 1338.35 1348.37 1358.40 1368.42 1378.45 1388.47 1398.50 1408.52 1418.55 1428.57 1438.60 1448.62 1458.65 1468.67 1478.70 1488.72 1498.75 1508.77 1518.80 1528.82 1538.85 1548.87 1558.90 1568.92 1578.95 1588.97 1599.00 1609.02 1619.05 1629.07 1639.10 1649.12 1659.15 1669.17 1679.20 1689.22 1699.25 1709.27 1719.30 1729.32 1739.35 1749.37 1759.40 1769.42 1779.45 1789.47 1799.50 1809.52 1819.55 1829.57 1839.60 1849.62 1859.65 1869.67 1879.70 1889.72 1899.75 1909.77 1919.80 1929.82 1939.85 1949.87 1959.90 1969.92 1979.95 1989.97 2000.00

   Height   Standard deviation at grid points for the u component:
   300.00    2.208   2.177   2.171   2.189   2.195   2.189   2.109   2.079   2.093   2.129   2.192   2.139   2.190   2.214   2.224   2.225   2.225   2.181   2.232   2.264   2.319   2.400   2.415   2.471   2.486   2.443   2.357   2.318   2.296   2.365   2.437   2.529   2.591   2.511   2.508   2.522   2.509   2.443   2.395   2.318   2.351   2.372   2.351   2.395   2.481   2.500   2.376   2.438   2.276   2.234   2.210   2.186   2.208   2.322   2.319   2.364   2.299   2.259   2.351   2.381   2.352   2.301   2.185   2.283   2.195   2.192   2.209   2.126   2.234   2.236   2.230   2.313   2.325   2.273   2.286   2.288   2.254   2.271   2.217   2.392   2.373   2.424   2.457   2.552   2.532   2.522   2.491   2.545   2.597   2.580   2.635   2.464   2.466   2.441   2.195   2.253   2.166   2.252   2.351   2.220   2.310   2.289   2.380   2.271   2.290   2.303   2.325   2.314   2.236   2.154   2.189   2.173   2.207   2.181   2.172   2.167   2.222   2.332   2.397   2.427   2.420   2.406   2.329   2.202   2.070   2.138   2.124   2.120   2.116   2.195   2.236   2.246   2.143   2.086   2.065   2.114   2.216   2.202   2.104   2.198   2.218   2.268   2.306   2.312   2.261   2.330   2.249   2.131   2.128   2.160   2.292   2.379   2.325   2.349   2.265   2.324   2.272   2.277   2.190   2.188   2.181   2.246   2.246   2.374   2.462   2.460   2.511   2.427   2.292   2.283   2.185   2.303   2.387   2.299   2.348   2.331   2.278   2.380   2.457   2.484   2.414   2.370   2.377   2.565   2.587   2.582   2.514   2.434   2.447   2.496   2.527   2.610   2.504   2.433   2.362   2.403   2.379   2.430   2.391   2.358   2.405   2.428   2.413   2.354   2.286   2.309   2.276   2.296   2.375   2.448   2.622   2.578   2.466   2.413   2.473   2.423   2.503   2.533   2.528   2.490   2.388   2.309   2.333   2.396   2.407   2.417   2.456   2.477   2.460   2.482   2.477   2.438   2.465   2.364   2.348   2.279   2.253   2.331   2.338   2.343   2.322   2.367   2.360   2.448   2.394   2.478   2.437   2.428   2.326   2.321   2.320   2.379   2.220   2.148   2.277   2.275   2.355   2.297   2.398   2.439   2.409   2.346   2.347   2.385   2.242   2.166   2.212   2.223   2.315   2.354   2.295   2.246   2.242   2.257   2.309   2.392   2.405   2.388   2.304   2.291   2.433   2.330   2.278   2.332   2.379   2.426   2.460   2.375   2.224   2.192   2.289   2.304   2.298   2.288   2.177   2.142   2.131   2.116   2.123   2.205   2.206   2.254   2.300   2.289   2.363   2.399   2.385   2.420   2.412   2.377   2.286   2.299   2.275   2.222   2.286   2.371   2.389   2.367   2.406   2.417   2.312   2.209   2.209   2.134   2.112   2.158   2.207   2.104   2.253   2.309   2.290   2.274   2.330   2.390   2.300   2.268   2.307   2.241   2.257   2.280   2.315   2.214   2.227   2.271   2.095   2.175   2.182   2.232   2.236   2.193   2.162   2.329   2.308   2.246   2.326   2.338   2.407   2.410   2.427   2.427   2.288   2.232   2.249   2.307   2.226   2.225   2.228   2.255   2.259   2.228   2.321   2.430   2.410   2.460   2.498   2.435   2.463   2.428   2.317   2.218   2.312   2.337   2.257   2.328   2.275   2.341   2.341   2.362   2.274   2.271   2.372   2.465   2.418   2.455   2.347   2.413   2.439   2.418   2.421   2.448
   289.66    2.126   2.209   2.201   2.278   2.302   2.164   2.188   2.158   2.142   2.158   2.135   2.218   2.255   2.315   2.341   2.331   2.216   2.221   2.215   2.303   2.453   2.395   2.392   2.374   2.431   2.484   2.399   2.429   2.365   2.501   2.601   2.589   2.524   2.594   2.450   2.446   2.446   2.402   2.357   2.379   2.418   2.376   2.400   2.376   2.437   2.436   2.584   2.466   2.358   2.228   2.170   2.133   2.227   2.228   2.269   2.284   2.329   2.291   2.305   2.298   2.273   2.214   2.229   2.259   2.185   2.194   2.202   2.125   2.171   2.263   2.364   2.341   2.351   2.356   2.284   2.321   2.261   2.243   2.293   2.340   2.359   2.387   2.490   2.566   2.530   2.536   2.528   2.565   2.574   2.501   2.575   2.437   2.374   2.448   2.369   2.257   2.137   2.244   2.210   2.296   2.310   2.305   2.328   2.298   2.264   2.265   2.331   2.289   2.306   2.346   2.248   2.164   2.126   2.091   2.153   2.219   2.278   2.410   2.473   2.427   2.489   2.301   2.266   2.232   2.131   2.142   2.113   2.120   2.159   2.191   2.209   2.251   2.171   2.106   2.080   2.100   2.181   2.218   2.080   2.169   2.213   2.354   2.329   2.311   2.280   2.317   2.237   2.173   2.142   2.188   2.229   2.328   2.298   2.290   2.359   2.350   2.349   2.255   2.215   2.230   2.173   2.226   2.302   2.318   2.417   2.527   2.468   2.392   2.342   2.331   2.342   2.378   2.383   2.336   2.388   2.448   2.426   2.281   2.378   2.436   2.341   2.296   2.540   2.589   2.623   2.593   2.517   2.626   2.511   2.520   2.585   2.558   2.465   2.370   2.361   2.386   2.318   2.342   2.389   2.383   2.276   2.401   2.333   2.194   2.254   2.237   2.317   2.324   2.251   2.415   2.483   2.491   2.453   2.392   2.482   2.470   2.570   2.493   2.442   2.373   2.434   2.329   2.417   2.350   2.379   2.407   2.461   2.511   2.487   2.627   2.534   2.479   2.506   2.469   2.510   2.455   2.370   2.295   2.323   2.292   2.323   2.327   2.383   2.380   2.425   2.389   2.396   2.383   2.387   2.258   2.238   2.146   2.229   2.279   2.377   2.333   2.312   2.358   2.406   2.471   2.438   2.455   2.357   2.429   2.415   2.310   2.270   2.270   2.328   2.252   2.295   2.272   2.157   2.283   2.352   2.440   2.325   2.322   2.316   2.410   2.422   2.351   2.462   2.490   2.423   2.409   2.375   2.364   2.270   2.321   2.281   2.374   2.295   2.302   2.195   2.146   2.059   2.169   2.211   2.182   2.229   2.275   2.223   2.314   2.441   2.468   2.320   2.438   2.382   2.302   2.321   2.365   2.260   2.218   2.264   2.295   2.408   2.359   2.345   2.331   2.281   2.226   2.250   2.185   2.106   2.085   2.171   2.257   2.287   2.246   2.294   2.313   2.365   2.297   2.354   2.299   2.150   2.117   2.139   2.179   2.209   2.189   2.209   2.124   2.070   2.075   2.136   2.234   2.355   2.270   2.231   2.438   2.409   2.393   2.254   2.347   2.371   2.470   2.390   2.419   2.285   2.247   2.197   2.237   2.297   2.250   2.311   2.321   2.311   2.343   2.258   2.329   2.373   2.357   2.399   2.440   2.470   2.391   2.432   2.399   2.497   2.410   2.323   2.310   2.257   2.262   2.349   2.336   2.237   2.249   2.292   2.321   2.455   2.407   2.336   2.383   2.377   2.378   2.314   2.343
   279.31    2.090   2.132   2.296   2.320   2.239   2.205   2.238   2.172   2.162   2.302   2.286   2.260   2.290   2.304   2.398   2.345   2.368   2.256   2.255   2.347   2.278   2.325   2.285   2.358   2.342   2.306   2.296   2.298   2.452   2.488   2.597   2.582   2.575   2.549   2.532   2.556   2.489   2.387   2.439   2.459   2.405   2.345   2.436   2.413   2.434   2.400   2.434   2.457   2.301   2.296   2.199   2.160   2.194   2.234   2.207   2.215   2.316   2.255   2.255   2.222   2.133   2.208   2.168   2.178   2.224   2.231   2.271   2.189   2.268   2.228   2.335   2.279   2.270   2.299   2.397   2.417   2.345   2.332   2.275   2.339   2.470   2.444   2.628   2.693   2.576   2.610   2.548   2.485   2.540   2.525   2.533   2.504   2.437   2.428   2.367   2.311   2.322   2.247   2.222   2.222   2.316   2.235   2.356   2.239   2.174   2.253   2.278   2.291   2.310   2.459   2.271   2.256   2.290   2.241   2.235   2.286   2.296   2.369   2.358   2.390   2.341   2.355   2.270   2.220   2.169   2.124   2.043   2.043   2.137   2.159   2.125   2.198   2.152   2.157   2.223   2.233   2.136   2.118   2.216   2.264   2.253   2.317   2.304   2.302   2.196   2.228   2.244   2.179   2.128   2.153   2.241   2.279   2.338   2.304   2.333   2.424   2.299   2.258   2.265   2.235   2.267   2.335   2.341   2.369   2.429   2.519   2.509   2.370   2.414   2.358   2.424   2.434   2.405   2.381   2.409   2.348   2.347   2.248   2.319   2.372   2.475   2.467   2.566   2.577   2.492   2.594   2.515   2.534   2.570   2.489   2.451   2.439   2.386   2.341   2.383   2.447   2.356   2.359   2.359   2.292   2.319   2.282   2.227   2.151   2.201   2.159   2.233   2.277   2.294   2.332   2.474   2.436   2.363   2.380   2.491   2.381   2.470   2.515   2.426   2.405   2.390   2.354   2.418   2.386   2.410   2.520   2.574   2.512   2.555   2.544   2.615   2.523   2.548   2.549   2.543   2.444   2.345   2.331   2.385   2.242   2.399   2.331   2.334   2.397   2.474   2.492   2.421   2.403   2.414   2.305   2.199   2.202   2.241   2.268   2.324   2.391   2.381   2.386   2.371   2.415   2.501   2.487   2.350   2.379   2.483   2.366   2.345   2.190   2.219   2.270   2.187   2.193   2.207   2.246   2.306   2.382   2.331   2.391   2.362   2.389   2.435   2.404   2.475   2.453   2.436   2.420   2.373   2.387   2.283   2.273   2.273   2.288   2.285   2.220   2.235   2.125   2.079   2.131   2.182   2.190   2.207   2.239   2.290   2.350   2.379   2.284   2.376   2.386   2.306   2.295   2.415   2.305   2.224   2.187   2.154   2.187   2.328   2.368   2.320   2.272   2.268   2.300   2.179   2.104   2.120   2.090   2.117   2.157   2.213   2.308   2.297   2.438   2.427   2.441   2.397   2.276   2.097   2.111   2.067   2.118   2.142   2.142   2.115   2.061   2.163   2.066   2.163   2.170   2.169   2.316   2.295   2.341   2.381   2.363   2.345   2.417   2.387   2.411   2.364   2.426   2.287   2.302   2.149   2.188   2.297   2.231   2.243   2.261   2.258   2.279   2.179   2.191   2.309   2.371   2.419   2.365   2.467   2.525   2.535   2.489   2.486   2.493   2.448   2.324   2.328   2.419   2.387   2.390   2.266   2.251   2.293   2.348   2.363   2.382   2.335   2.290   2.337   2.305   2.272   2.264
   268.97    2.100   2.085   2.257   2.311   2.306   2.308   2.244   2.173   2.146   2.195   2.309   2.208   2.236   2.325   2.436   2.370   2.410   2.365   2.325   2.396   2.420   2.456   2.388   2.255   2.253   2.291   2.266   2.263   2.346   2.422   2.487   2.538   2.520   2.580   2.522   2.507   2.486   2.397   2.314   2.402   2.444   2.344   2.363   2.352   2.435   2.329   2.351   2.393   2.336   2.298   2.239   2.197   2.187   2.134   2.106   2.166   2.225   2.121   2.258   2.167   2.113   2.176   2.207   2.188   2.257   2.225   2.290   2.271   2.324   2.269   2.349   2.340   2.404   2.372   2.407   2.368   2.353   2.364   2.364   2.433   2.459   2.563   2.598   2.665   2.683   2.519   2.449   2.405   2.472   2.574   2.647   2.566   2.443   2.423   2.420   2.388   2.385   2.262   2.206   2.262   2.181   2.167   2.215   2.313   2.299   2.306   2.387   2.349   2.384   2.404   2.332   2.393   2.407   2.381   2.229   2.249   2.190   2.298   2.195   2.303   2.296   2.213   2.185   2.209   2.095   2.149   2.131   2.058   2.111   2.143   2.071   1.974   2.030   2.066   2.066   2.191   2.154   2.128   2.189   2.287   2.276   2.285   2.212   2.249   2.195   2.172   2.121   2.057   2.116   2.147   2.135   2.195   2.233   2.314   2.302   2.293   2.229   2.347   2.324   2.421   2.350   2.381   2.322   2.362   2.427   2.452   2.482   2.459   2.340   2.367   2.407   2.421   2.323   2.264   2.323   2.276   2.391   2.415   2.345   2.447   2.440   2.545   2.598   2.595   2.564   2.608   2.459   2.489   2.520   2.480   2.287   2.309   2.290   2.380   2.396   2.417   2.364   2.374   2.325   2.377   2.213   2.263   2.165   2.151   2.064   2.111   2.170   2.214   2.335   2.298   2.377   2.475   2.412   2.504   2.440   2.413   2.479   2.391   2.421   2.394   2.343   2.322   2.387   2.490   2.491   2.505   2.519   2.537   2.581   2.562   2.607   2.499   2.553   2.543   2.523   2.587   2.484   2.283   2.350   2.315   2.449   2.385   2.385   2.458   2.450   2.507   2.524   2.465   2.348   2.222   2.249   2.209   2.231   2.335   2.372   2.378   2.503   2.453   2.336   2.289   2.357   2.408   2.291   2.278   2.333   2.385   2.425   2.296   2.276   2.308   2.262   2.211   2.208   2.281   2.287   2.424   2.331   2.277   2.416   2.492   2.432   2.486   2.436   2.372   2.337   2.440   2.438   2.323   2.253   2.281   2.177   2.206   2.255   2.253   2.189   2.123   2.260   2.306   2.172   2.115   2.217   2.323   2.371   2.448   2.397   2.399   2.369   2.427   2.343   2.334   2.398   2.303   2.275   2.267   2.240   2.199   2.200   2.366   2.335   2.298   2.229   2.288   2.251   2.130   2.118   2.131   2.076   2.114   2.131   2.242   2.367   2.444   2.468   2.360   2.293   2.204   2.104   2.063   2.092   2.181   2.117   2.095   2.064   2.049   2.057   2.108   2.124   2.125   2.167   2.156   2.261   2.208   2.288   2.388   2.380   2.390   2.495   2.426   2.360   2.374   2.284   2.223   2.307   2.264   2.231   2.261   2.233   2.264   2.238   2.139   2.280   2.216   2.362   2.332   2.533   2.504   2.554   2.545   2.536   2.487   2.536   2.531   2.399   2.319   2.373   2.378   2.316   2.263   2.208   2.218   2.252   2.365   2.196   2.219   2.327   2.248   2.324   2.248   2.204   2.140
   258.62    2.172   2.161   2.194   2.301   2.279   2.254   2.271   2.264   2.182   2.137   2.116   2.204   2.128   2.218   2.323   2.307   2.439   2.365   2.394   2.389   2.453   2.462   2.284   2.228   2.335   2.337   2.316   2.253   2.325   2.470   2.468   2.526   2.606   2.480   2.374   2.370   2.430   2.258   2.328   2.387   2.434   2.415   2.408   2.347   2.390   2.338   2.380   2.319   2.358   2.309   2.248   2.287   2.273   2.161   2.182   2.274   2.211   2.108   2.150   2.125   2.007   2.064   2.079   2.201   2.400   2.245   2.142   2.164   2.174   2.377   2.329   2.376   2.464   2.527   2.415   2.440   2.377   2.357   2.301   2.382   2.416   2.460   2.540   2.552   2.596   2.498   2.447   2.402   2.493   2.538   2.591   2.538   2.540   2.482   2.426   2.478   2.409   2.307   2.311   2.277   2.218   2.200   2.292   2.304   2.371   2.403   2.407   2.384   2.432   2.412   2.332   2.333   2.345   2.335   2.222   2.182   2.202   2.200   2.177   2.223   2.235   2.155   2.091   2.117   2.089   2.081   2.042   2.121   2.144   2.075   2.046   2.007   2.059   2.041   2.095   2.132   2.131   2.114   2.128   2.209   2.191   2.192   2.290   2.209   2.131   2.139   2.244   2.127   2.102   2.140   2.081   2.251   2.245   2.282   2.239   2.266   2.180   2.287   2.372   2.456   2.343   2.281   2.304   2.350   2.367   2.313   2.358   2.375   2.323   2.354   2.378   2.306   2.270   2.357   2.229   2.339   2.364   2.444   2.425   2.407   2.420   2.604   2.652   2.695   2.531   2.507   2.473   2.439   2.441   2.389   2.221   2.300   2.354   2.311   2.338   2.396   2.320   2.288   2.367   2.344   2.207   2.188   2.138   2.167   2.078   2.110   2.142   2.305   2.179   2.274   2.436   2.385   2.494   2.564   2.440   2.364   2.371   2.465   2.423   2.386   2.280   2.299   2.387   2.526   2.513   2.389   2.429   2.490   2.645   2.532   2.605   2.597   2.485   2.564   2.528   2.661   2.542   2.432   2.421   2.407   2.373   2.370   2.520   2.463   2.473   2.437   2.490   2.396   2.315   2.294   2.346   2.342   2.350   2.390   2.401   2.433   2.488   2.375   2.372   2.324   2.347   2.295   2.218   2.269   2.276   2.362   2.399   2.315   2.352   2.336   2.322   2.295   2.378   2.367   2.295   2.273   2.380   2.352   2.444   2.475   2.458   2.451   2.380   2.371   2.400   2.452   2.431   2.333   2.293   2.332   2.249   2.251   2.316   2.237   2.096   2.178   2.232   2.205   2.264   2.267   2.218   2.344   2.370   2.388   2.448   2.355   2.377   2.365   2.353   2.353   2.392   2.342   2.358   2.336   2.333   2.269   2.324   2.405   2.389   2.337   2.297   2.232   2.137   2.181   2.195   2.218   2.149   2.129   2.055   2.250   2.344   2.347   2.395   2.347   2.306   2.190   2.153   2.113   2.125   2.103   1.990   1.977   2.106   2.081   2.014   2.041   2.218   2.269   2.272   2.257   2.206   2.220   2.222   2.296   2.378   2.401   2.445   2.414   2.339   2.322   2.343   2.255   2.386   2.293   2.409   2.343   2.210   2.235   2.062   2.160   2.229   2.198   2.272   2.352   2.438   2.436   2.440   2.345   2.511   2.460   2.437   2.479   2.436   2.428   2.426   2.452   2.278   2.226   2.210   2.167   2.244   2.230   2.223   2.200   2.248   2.156   2.172   2.232   2.223   2.214
   248.28    2.261   2.276   2.312   2.253   2.236   2.251   2.234   2.289   2.294   2.249   2.219   2.212   2.131   2.164   2.229   2.308   2.425   2.382   2.340   2.329   2.412   2.397   2.271   2.124   2.102   2.268   2.281   2.277   2.275   2.333   2.390   2.509   2.472   2.347   2.377   2.306   2.309   2.294   2.344   2.305   2.443   2.438   2.376   2.402   2.372   2.278   2.311   2.334   2.343   2.328   2.317   2.307   2.316   2.227   2.286   2.212   2.179   2.123   2.144   2.083   2.030   2.064   2.150   2.310   2.410   2.313   2.306   2.233   2.208   2.344   2.350   2.402   2.569   2.576   2.472   2.442   2.421   2.347   2.379   2.392   2.381   2.469   2.394   2.465   2.515   2.396   2.402   2.354   2.462   2.414   2.544   2.586   2.534   2.440   2.417   2.513   2.480   2.357   2.283   2.308   2.263   2.278   2.310   2.353   2.384   2.465   2.510   2.441   2.453   2.415   2.428   2.278   2.327   2.281   2.254   2.298   2.191   2.184   2.224   2.207   2.212   2.220   2.136   2.109   2.160   2.146   2.096   2.065   2.087   2.055   2.005   2.019   2.024   2.034   2.101   2.146   2.096   2.158   2.169   2.220   2.191   2.162   2.189   2.154   2.169   2.214   2.288   2.308   2.168   2.135   2.043   2.087   2.225   2.236   2.235   2.270   2.280   2.287   2.379   2.393   2.307   2.278   2.307   2.162   2.263   2.230   2.180   2.268   2.254   2.325   2.339   2.283   2.290   2.283   2.233   2.334   2.359   2.326   2.374   2.413   2.475   2.591   2.672   2.671   2.528   2.524   2.496   2.312   2.258   2.298   2.354   2.318   2.412   2.378   2.461   2.419   2.314   2.241   2.247   2.254   2.261   2.220   2.105   2.095   2.143   2.087   2.179   2.175   2.287   2.348   2.485   2.487   2.474   2.497   2.467   2.426   2.355   2.432   2.305   2.345   2.275   2.424   2.464   2.401   2.440   2.266   2.279   2.449   2.507   2.493   2.511   2.430   2.383   2.463   2.480   2.512   2.484   2.439   2.396   2.393   2.354   2.334   2.387   2.454   2.370   2.388   2.355   2.310   2.370   2.306   2.330   2.306   2.458   2.487   2.469   2.405   2.389   2.278   2.323   2.312   2.257   2.160   2.180   2.113   2.166   2.228   2.274   2.249   2.330   2.311   2.278   2.296   2.302   2.288   2.387   2.320   2.344   2.387   2.405   2.483   2.458   2.268   2.306   2.304   2.270   2.366   2.339   2.375   2.453   2.374   2.273   2.252   2.140   2.242   2.186   2.237   2.290   2.202   2.309   2.284   2.333   2.282   2.384   2.335   2.366   2.470   2.412   2.414   2.287   2.224   2.328   2.414   2.394   2.324   2.331   2.320   2.320   2.302   2.340   2.225   2.269   2.323   2.227   2.195   2.224   2.251   2.123   2.063   2.101   2.186   2.266   2.263   2.312   2.291   2.269   2.210   2.173   2.170   2.113   2.032   2.041   2.052   2.041   2.068   2.134   2.097   2.280   2.240   2.213   2.312   2.321   2.349   2.284   2.338   2.352   2.395   2.446   2.416   2.482   2.484   2.383   2.378   2.395   2.376   2.440   2.331   2.300   2.244   2.180   2.171   2.194   2.272   2.311   2.296   2.317   2.305   2.401   2.310   2.410   2.358   2.266   2.382   2.259   2.343   2.402   2.390   2.402   2.372   2.364   2.338   2.295   2.246   2.331   2.175   2.192   2.125   2.204   2.241   2.103   2.208
   237.93    2.324   2.309   2.307   2.330   2.294   2.272   2.345   2.329   2.305   2.261   2.177   2.151   2.157   2.234   2.148   2.197   2.289   2.194   2.265   2.369   2.396   2.376   2.283   2.227   2.138   2.308   2.308   2.262   2.225   2.260   2.366   2.413   2.433   2.341   2.323   2.305   2.269   2.252   2.158   2.229   2.358   2.423   2.459   2.338   2.390   2.392   2.413   2.406   2.448   2.427   2.373   2.342   2.352   2.324   2.307   2.223   2.157   2.106   2.117   2.089   2.086   2.095   2.190   2.291   2.269   2.375   2.299   2.233   2.248   2.272   2.335   2.474   2.627   2.595   2.509   2.402   2.368   2.366   2.372   2.408   2.456   2.406   2.398   2.500   2.513   2.377   2.508   2.422   2.455   2.435   2.555   2.419   2.354   2.401   2.406   2.392   2.386   2.345   2.403   2.363   2.292   2.292   2.298   2.325   2.326   2.431   2.465   2.502   2.438   2.450   2.395   2.381   2.469   2.316   2.277   2.195   2.210   2.262   2.259   2.236   2.159   2.071   2.115   2.224   2.219   2.133   2.109   2.122   2.101   2.146   2.009   1.972   1.962   2.077   2.078   2.100   2.153   2.126   2.150   2.158   2.117   2.122   2.131   2.029   2.260   2.269   2.216   2.236   2.169   2.101   2.113   2.061   2.092   2.157   2.136   2.228   2.223   2.345   2.327   2.291   2.367   2.400   2.165   2.270   2.276   2.178   2.215   2.297   2.283   2.196   2.286   2.299   2.288   2.206   2.307   2.314   2.338   2.398   2.414   2.412   2.477   2.522   2.614   2.648   2.557   2.450   2.410   2.286   2.271   2.308   2.308   2.293   2.345   2.371   2.366   2.432   2.308   2.252   2.204   2.244   2.288   2.191   2.052   2.128   2.194   2.166   2.210   2.244   2.320   2.350   2.405   2.338   2.350   2.333   2.273   2.341   2.392   2.350   2.322   2.384   2.351   2.360   2.500   2.581   2.392   2.202   2.232   2.341   2.403   2.376   2.384   2.310   2.399   2.350   2.403   2.442   2.448   2.424   2.329   2.343   2.336   2.336   2.394   2.351   2.380   2.320   2.312   2.195   2.234   2.271   2.258   2.220   2.404   2.440   2.482   2.458   2.461   2.364   2.237   2.240   2.193   2.103   2.073   2.061   2.123   2.134   2.248   2.296   2.336   2.327   2.217   2.251   2.299   2.394   2.342   2.370   2.356   2.420   2.558   2.546   2.471   2.308   2.323   2.187   2.247   2.241   2.276   2.312   2.269   2.255   2.295   2.174   2.182   2.190   2.171   2.307   2.374   2.258   2.413   2.305   2.305   2.248   2.329   2.298   2.454   2.471   2.452   2.318   2.307   2.250   2.333   2.498   2.529   2.369   2.406   2.467   2.455   2.323   2.347   2.330   2.207   2.295   2.299   2.225   2.259   2.244   2.201   2.196   2.161   2.130   2.193   2.269   2.230   2.207   2.188   2.116   2.118   2.154   2.059   1.999   1.965   2.057   2.096   2.089   2.145   2.271   2.211   2.280   2.296   2.245   2.325   2.346   2.412   2.467   2.366   2.382   2.346   2.302   2.329   2.512   2.514   2.451   2.426   2.396   2.396   2.392   2.296   2.280   2.260   2.162   2.236   2.240   2.286   2.211   2.288   2.334   2.394   2.321   2.375   2.276   2.388   2.397   2.288   2.355   2.401   2.436   2.487   2.536   2.379   2.331   2.340   2.312   2.309   2.176   2.148   2.151   2.175   2.222   2.015   2.038
   227.59    2.283   2.282   2.276   2.344   2.333   2.256   2.206   2.245   2.240   2.204   2.266   2.233   2.204   2.189   2.148   2.202   2.183   2.222   2.242   2.230   2.256   2.289   2.318   2.282   2.234   2.321   2.282   2.282   2.353   2.274   2.262   2.274   2.361   2.429   2.374   2.297   2.317   2.205   2.195   2.229   2.379   2.436   2.442   2.333   2.337   2.328   2.380   2.513   2.547   2.408   2.389   2.360   2.332   2.236   2.223   2.162   2.102   2.141   2.096   2.089   2.072   2.073   2.129   2.204   2.269   2.366   2.418   2.304   2.244   2.293   2.584   2.713   2.591   2.586   2.507   2.442   2.313   2.326   2.435   2.493   2.473   2.322   2.392   2.473   2.424   2.463   2.569   2.527   2.519   2.461   2.472   2.471   2.446   2.434   2.474   2.451   2.434   2.428   2.506   2.366   2.347   2.190   2.286   2.383   2.425   2.453   2.568   2.524   2.435   2.426   2.373   2.389   2.513   2.406   2.384   2.250   2.208   2.274   2.230   2.199   2.186   2.115   2.114   2.248   2.241   2.186   2.167   2.237   2.157   2.089   1.998   1.988   2.047   2.097   2.118   2.151   2.183   2.220   2.106   2.037   2.162   2.184   2.212   2.223   2.302   2.264   2.209   2.282   2.209   2.130   2.123   2.128   2.119   2.163   2.171   2.160   2.261   2.223   2.285   2.344   2.411   2.338   2.250   2.364   2.302   2.297   2.192   2.296   2.372   2.308   2.339   2.384   2.225   2.238   2.311   2.319   2.315   2.297   2.408   2.503   2.554   2.594   2.640   2.609   2.539   2.492   2.397   2.412   2.311   2.319   2.312   2.413   2.334   2.431   2.269   2.311   2.272   2.221   2.253   2.284   2.318   2.197   2.242   2.206   2.190   2.361   2.239   2.225   2.249   2.344   2.300   2.278   2.300   2.197   2.166   2.321   2.406   2.327   2.394   2.369   2.352   2.456   2.527   2.462   2.312   2.315   2.260   2.222   2.342   2.311   2.276   2.310   2.287   2.380   2.453   2.391   2.430   2.374   2.287   2.296   2.259   2.342   2.417   2.379   2.389   2.218   2.236   2.256   2.251   2.237   2.286   2.318   2.326   2.386   2.475   2.404   2.402   2.296   2.153   2.196   2.266   2.223   2.134   2.107   2.181   2.229   2.352   2.429   2.320   2.325   2.339   2.362   2.325   2.387   2.437   2.401   2.437   2.479   2.533   2.456   2.373   2.272   2.151   2.193   2.180   2.262   2.267   2.254   2.167   2.129   2.193   2.206   2.109   2.107   2.168   2.318   2.302   2.250   2.408   2.445   2.345   2.315   2.406   2.354   2.359   2.455   2.497   2.432   2.325   2.330   2.337   2.362   2.409   2.477   2.483   2.364   2.459   2.464   2.341   2.295   2.224   2.372   2.350   2.296   2.270   2.230   2.145   2.209   2.259   2.272   2.293   2.246   2.231   2.110   2.110   2.104   2.016   2.014   2.074   2.026   2.059   2.047   2.099   2.120   2.211   2.215   2.307   2.300   2.286   2.307   2.333   2.308   2.301   2.323   2.380   2.378   2.373   2.273   2.365   2.506   2.435   2.403   2.362   2.299   2.245   2.249   2.322   2.268   2.292   2.202   2.120   2.257   2.271   2.234   2.225   2.311   2.302   2.205   2.234   2.294   2.450   2.441   2.394   2.354   2.425   2.436   2.409   2.452   2.298   2.239   2.256   2.270   2.288   2.163   2.218   2.181   2.094   2.068   2.023   2.019
   217.24    2.288   2.179   2.273   2.334   2.337   2.243   2.226   2.175   2.158   2.179   2.279   2.310   2.195   2.229   2.161   2.205   2.220   2.315   2.301   2.317   2.323   2.372   2.305   2.312   2.387   2.371   2.465   2.391   2.398   2.340   2.293   2.270   2.348   2.431   2.425   2.334   2.200   2.267   2.225   2.242   2.378   2.302   2.310   2.356   2.369   2.294   2.458   2.456   2.556   2.398   2.404   2.360   2.414   2.326   2.294   2.144   2.039   2.065   2.021   2.071   2.199   2.132   2.150   2.199   2.272   2.319   2.460   2.395   2.342   2.396   2.597   2.663   2.650   2.437   2.359   2.394   2.335   2.341   2.406   2.518   2.433   2.400   2.492   2.454   2.490   2.582   2.565   2.577   2.499   2.511   2.557   2.471   2.412   2.431   2.437   2.361   2.426   2.407   2.292   2.334   2.291   2.172   2.219   2.369   2.452   2.443   2.562   2.559   2.452   2.414   2.372   2.482   2.502   2.399   2.257   2.293   2.201   2.238   2.230   2.241   2.139   2.139   2.157   2.184   2.197   2.096   2.213   2.210   2.143   2.123   2.055   2.038   2.088   2.056   2.109   2.252   2.056   2.101   2.124   2.083   2.069   2.130   2.193   2.283   2.311   2.323   2.301   2.254   2.304   2.153   2.182   2.178   2.210   2.225   2.145   2.243   2.231   2.309   2.322   2.352   2.317   2.266   2.337   2.417   2.391   2.375   2.347   2.367   2.436   2.328   2.385   2.287   2.249   2.322   2.354   2.260   2.301   2.318   2.403   2.456   2.573   2.536   2.594   2.663   2.460   2.454   2.378   2.375   2.308   2.235   2.303   2.415   2.444   2.231   2.251   2.147   2.222   2.213   2.259   2.223   2.203   2.200   2.160   2.283   2.271   2.289   2.316   2.256   2.219   2.268   2.252   2.246   2.273   2.213   2.293   2.246   2.317   2.285   2.340   2.362   2.298   2.299   2.339   2.343   2.219   2.244   2.247   2.231   2.261   2.229   2.212   2.208   2.333   2.455   2.468   2.414   2.459   2.434   2.408   2.377   2.448   2.485   2.395   2.351   2.360   2.377   2.237   2.375   2.268   2.336   2.237   2.306   2.235   2.370   2.438   2.403   2.358   2.260   2.173   2.253   2.248   2.269   2.260   2.148   2.074   2.164   2.242   2.336   2.251   2.263   2.286   2.289   2.450   2.401   2.407   2.319   2.348   2.389   2.464   2.328   2.340   2.231   2.119   2.218   2.192   2.310   2.307   2.323   2.211   2.269   2.253   2.229   2.131   2.189   2.265   2.336   2.269   2.312   2.355   2.423   2.374   2.323   2.409   2.437   2.393   2.409   2.386   2.442   2.449   2.376   2.424   2.464   2.434   2.470   2.430   2.328   2.414   2.358   2.370   2.249   2.283   2.352   2.315   2.347   2.288   2.246   2.202   2.209   2.233   2.364   2.233   2.218   2.220   2.124   2.056   1.957   2.014   2.102   2.011   2.002   2.027   2.032   2.074   2.078   2.266   2.306   2.268   2.346   2.245   2.306   2.306   2.330   2.284   2.230   2.335   2.344   2.357   2.330   2.358   2.436   2.403   2.392   2.413   2.347   2.262   2.321   2.252   2.250   2.275   2.158   2.168   2.210   2.222   2.285   2.188   2.205   2.326   2.202   2.223   2.340   2.271   2.400   2.402   2.314   2.372   2.356   2.393   2.468   2.368   2.243   2.265   2.272   2.251   2.226   2.225   2.170   2.109   2.022   2.034   2.094
   206.90    2.215   2.269   2.262   2.275   2.300   2.292   2.320   2.207   2.142   2.182   2.225   2.173   2.213   2.353   2.273   2.287   2.308   2.225   2.353   2.333   2.236   2.250   2.375   2.410   2.383   2.377   2.455   2.372   2.342   2.283   2.332   2.317   2.254   2.324   2.352   2.256   2.226   2.263   2.221   2.179   2.335   2.269   2.357   2.414   2.394   2.427   2.498   2.531   2.375   2.441   2.398   2.419   2.354   2.388   2.268   2.173   2.112   2.065   2.136   2.127   2.186   2.270   2.290   2.337   2.350   2.395   2.453   2.497   2.459   2.450   2.551   2.541   2.459   2.458   2.306   2.318   2.298   2.385   2.460   2.491   2.501   2.389   2.412   2.473   2.518   2.522   2.455   2.482   2.476   2.450   2.477   2.408   2.418   2.399   2.318   2.196   2.265   2.278   2.236   2.202   2.172   2.162   2.288   2.369   2.452   2.455   2.321   2.347   2.330   2.373   2.465   2.512   2.435   2.279   2.282   2.297   2.243   2.129   2.212   2.226   2.183   2.197   2.073   2.122   2.151   2.250   2.163   2.225   2.195   2.129   2.056   2.033   2.050   2.100   2.197   2.266   2.105   2.107   2.080   2.044   2.117   2.250   2.290   2.403   2.366   2.365   2.236   2.302   2.294   2.246   2.183   2.244   2.190   2.193   2.209   2.260   2.351   2.324   2.262   2.278   2.266   2.267   2.343   2.344   2.469   2.398   2.489   2.439   2.263   2.199   2.202   2.210   2.252   2.388   2.308   2.349   2.311   2.304   2.386   2.471   2.597   2.628   2.613   2.687   2.591   2.436   2.412   2.403   2.367   2.340   2.278   2.385   2.332   2.293   2.318   2.191   2.220   2.163   2.205   2.190   2.216   2.177   2.198   2.271   2.231   2.262   2.285   2.161   2.201   2.209   2.235   2.298   2.369   2.331   2.229   2.259   2.249   2.189   2.262   2.232   2.217   2.242   2.241   2.296   2.277   2.298   2.267   2.284   2.167   2.243   2.295   2.223   2.361   2.397   2.453   2.483   2.478   2.482   2.408   2.430   2.443   2.400   2.431   2.467   2.414   2.404   2.251   2.258   2.326   2.314   2.315   2.349   2.354   2.373   2.402   2.335   2.247   2.225   2.166   2.210   2.249   2.235   2.327   2.129   2.069   2.016   2.097   2.248   2.199   2.222   2.240   2.234   2.340   2.368   2.333   2.304   2.281   2.321   2.382   2.366   2.340   2.264   2.172   2.192   2.297   2.364   2.451   2.356   2.367   2.309   2.309   2.160   2.165   2.330   2.328   2.304   2.288   2.331   2.327   2.368   2.439   2.353   2.376   2.526   2.468   2.434   2.523   2.545   2.603   2.474   2.384   2.485   2.526   2.465   2.460   2.315   2.405   2.325   2.353   2.297   2.325   2.342   2.304   2.254   2.193   2.212   2.215   2.176   2.193   2.229   2.203   2.165   2.211   2.166   2.105   2.090   1.962   2.002   2.019   1.967   1.939   2.040   2.119   2.179   2.275   2.273   2.315   2.278   2.236   2.297   2.280   2.296   2.286   2.307   2.270   2.242   2.349   2.380   2.265   2.276   2.251   2.314   2.370   2.391   2.385   2.240   2.229   2.231   2.245   2.151   2.174   2.214   2.235   2.249   2.203   2.194   2.237   2.245   2.279   2.264   2.264   2.275   2.430   2.406   2.408   2.396   2.432   2.478   2.346   2.223   2.199   2.249   2.137   2.202   2.142   2.171   2.162   2.191   2.133   2.156
   196.55    2.270   2.349   2.315   2.407   2.311   2.259   2.189   2.196   2.161   2.068   2.100   2.153   2.230   2.245   2.316   2.345   2.228   2.267   2.227   2.214   2.250   2.246   2.228   2.377   2.316   2.333   2.314   2.268   2.329   2.344   2.281   2.319   2.356   2.337   2.327   2.287   2.313   2.190   2.255   2.273   2.375   2.374   2.412   2.487   2.555   2.530   2.516   2.525   2.395   2.425   2.466   2.504   2.426   2.424   2.366   2.245   2.124   2.247   2.241   2.179   2.242   2.300   2.224   2.265   2.369   2.394   2.444   2.502   2.550   2.509   2.577   2.559   2.423   2.346   2.451   2.360   2.284   2.388   2.433   2.430   2.465   2.513   2.422   2.572   2.549   2.580   2.443   2.459   2.375   2.337   2.372   2.437   2.374   2.281   2.248   2.189   2.180   2.236   2.179   2.192   2.267   2.219   2.252   2.308   2.400   2.370   2.323   2.309   2.274   2.444   2.500   2.396   2.303   2.239   2.331   2.269   2.176   2.155   2.142   2.130   2.175   2.208   2.196   2.134   2.119   2.176   2.146   2.289   2.187   2.158   2.112   2.093   1.998   2.100   2.134   2.165   2.107   1.991   2.120   2.034   2.050   2.357   2.369   2.371   2.317   2.273   2.317   2.333   2.328   2.229   2.220   2.211   2.176   2.154   2.152   2.284   2.336   2.398   2.290   2.340   2.262   2.202   2.242   2.235   2.383   2.363   2.298   2.436   2.320   2.205   2.199   2.229   2.295   2.307   2.230   2.418   2.389   2.409   2.300   2.366   2.541   2.606   2.695   2.611   2.431   2.478   2.538   2.364   2.201   2.203   2.176   2.202   2.310   2.195   2.187   2.158   2.249   2.245   2.300   2.178   2.195   2.133   2.231   2.339   2.309   2.319   2.260   2.259   2.220   2.173   2.174   2.236   2.339   2.393   2.302   2.242   2.145   2.133   2.179   2.202   2.162   2.227   2.360   2.266   2.314   2.321   2.217   2.255   2.258   2.331   2.306   2.259   2.347   2.425   2.395   2.396   2.530   2.547   2.418   2.503   2.475   2.377   2.456   2.500   2.434   2.340   2.290   2.223   2.124   2.271   2.337   2.387   2.294   2.399   2.431   2.350   2.286   2.140   2.169   2.198   2.161   2.276   2.263   2.185   2.054   2.009   2.122   2.119   2.157   2.176   2.246   2.252   2.270   2.336   2.254   2.245   2.225   2.283   2.435   2.413   2.263   2.232   2.255   2.168   2.248   2.387   2.354   2.423   2.368   2.351   2.274   2.286   2.265   2.293   2.335   2.271   2.291   2.296   2.341   2.372   2.421   2.473   2.444   2.493   2.476   2.439   2.480   2.625   2.543   2.412   2.325   2.424   2.536   2.571   2.557   2.436   2.376   2.263   2.317   2.201   2.267   2.245   2.260   2.214   2.183   2.174   2.233   2.272   2.188   2.248   2.337   2.073   2.157   2.128   2.152   2.116   1.999   2.006   1.942   1.896   1.987   2.108   2.198   2.205   2.297   2.190   2.272   2.293   2.293   2.271   2.201   2.188   2.317   2.392   2.390   2.314   2.272   2.231   2.299   2.145   2.211   2.201   2.243   2.263   2.200   2.155   2.175   2.245   2.309   2.204   2.198   2.240   2.283   2.232   2.249   2.238   2.221   2.294   2.212   2.212   2.185   2.255   2.379   2.388   2.413   2.496   2.355   2.457   2.262   2.243   2.207   2.198   2.220   2.196   2.044   2.125   2.240   2.365   2.313   2.270
   186.21    2.288   2.454   2.349   2.380   2.361   2.246   2.251   2.154   2.142   2.176   2.160   2.254   2.343   2.216   2.316   2.310   2.251   2.251   2.248   2.235   2.265   2.285   2.205   2.256   2.290   2.315   2.249   2.313   2.302   2.317   2.367   2.330   2.473   2.451   2.407   2.442   2.373   2.363   2.377   2.399   2.508   2.512   2.418   2.393   2.490   2.514   2.536   2.573   2.543   2.364   2.432   2.444   2.468   2.388   2.268   2.135   2.103   2.163   2.211   2.225   2.213   2.272   2.270   2.319   2.451   2.452   2.515   2.552   2.574   2.572   2.594   2.526   2.465   2.401   2.332   2.361   2.433   2.445   2.524   2.490   2.453   2.642   2.574   2.608   2.428   2.432   2.410   2.404   2.387   2.384   2.510   2.464   2.359   2.346   2.246   2.200   2.255   2.206   2.230   2.231   2.371   2.352   2.296   2.333   2.296   2.287   2.273   2.309   2.333   2.456   2.506   2.362   2.334   2.285   2.279   2.153   2.130   2.122   2.114   2.114   2.039   2.071   2.196   2.163   2.076   2.085   2.119   2.167   2.162   2.058   2.051   2.012   2.096   2.077   2.160   2.242   2.090   2.161   2.152   2.048   2.246   2.376   2.345   2.425   2.378   2.339   2.348   2.447   2.416   2.337   2.346   2.337   2.178   2.263   2.310   2.313   2.395   2.362   2.314   2.327   2.364   2.382   2.200   2.247   2.339   2.352   2.339   2.370   2.243   2.183   2.209   2.239   2.278   2.338   2.395   2.553   2.483   2.362   2.492   2.487   2.541   2.571   2.594   2.520   2.515   2.418   2.431   2.295   2.225   2.288   2.178   2.176   2.265   2.311   2.242   2.124   2.206   2.147   2.228   2.172   2.118   2.187   2.184   2.236   2.266   2.264   2.247   2.301   2.340   2.276   2.199   2.189   2.213   2.284   2.229   2.190   2.107   2.108   2.229   2.264   2.194   2.267   2.262   2.334   2.257   2.336   2.349   2.217   2.188   2.320   2.340   2.334   2.356   2.369   2.387   2.437   2.413   2.565   2.515   2.482   2.498   2.451   2.473   2.528   2.494   2.472   2.335   2.323   2.150   2.287   2.388   2.347   2.249   2.372   2.319   2.254   2.190   2.257   2.311   2.234   2.201   2.198   2.140   2.128   2.133   2.044   2.086   2.146   2.108   2.142   2.183   2.144   2.200   2.233   2.179   2.174   2.211   2.218   2.390   2.353   2.255   2.222   2.238   2.197   2.266   2.376   2.350   2.518   2.381   2.346   2.328   2.301   2.262   2.318   2.324   2.336   2.415   2.433   2.388   2.385   2.404   2.383   2.453   2.417   2.385   2.481   2.529   2.622   2.657   2.414   2.401   2.458   2.409   2.551   2.536   2.483   2.288   2.228   2.248   2.287   2.233   2.246   2.300   2.297   2.291   2.260   2.212   2.145   2.190   2.247   2.290   2.195   2.160   2.233   2.144   2.136   2.059   2.112   1.938   2.032   2.069   2.054   2.159   2.203   2.231   2.173   2.190   2.265   2.276   2.220   2.169   2.216   2.327   2.395   2.387   2.398   2.333   2.217   2.251   2.173   2.182   2.192   2.181   2.222   2.224   2.168   2.138   2.235   2.249   2.307   2.238   2.340   2.317   2.338   2.212   2.170   2.180   2.267   2.182   2.205   2.162   2.223   2.353   2.431   2.510   2.420   2.469   2.327   2.332   2.145   2.151   2.138   2.178   2.153   2.204   2.286   2.307   2.403   2.304   2.188
   175.86    2.249   2.395   2.401   2.409   2.348   2.270   2.293   2.232   2.146   2.240   2.267   2.338   2.366   2.224   2.163   2.248   2.252   2.154   2.159   2.116   2.155   2.186   2.295   2.256   2.287   2.263   2.203   2.258   2.363   2.426   2.354   2.363   2.448   2.520   2.513   2.496   2.470   2.526   2.447   2.594   2.588   2.487   2.417   2.381   2.466   2.401   2.519   2.504   2.454   2.366   2.412   2.434   2.295   2.233   2.254   2.170   2.103   2.172   2.136   2.155   2.168   2.361   2.315   2.323   2.505   2.580   2.540   2.593   2.645   2.588   2.495   2.489   2.466   2.342   2.413   2.419   2.474   2.443   2.514   2.551   2.525   2.537   2.494   2.558   2.390   2.315   2.333   2.446   2.376   2.478   2.459   2.403   2.370   2.398   2.324   2.316   2.334   2.320   2.374   2.428   2.409   2.408   2.384   2.277   2.228   2.334   2.317   2.374   2.344   2.356   2.425   2.370   2.311   2.309   2.228   2.200   2.183   2.264   2.071   1.999   1.975   2.036   2.112   2.080   2.097   1.972   2.036   2.061   2.082   2.084   2.083   1.956   2.051   2.146   2.200   2.183   2.146   2.186   2.292   2.221   2.271   2.272   2.361   2.394   2.357   2.363   2.365   2.361   2.469   2.411   2.388   2.407   2.247   2.320   2.299   2.360   2.405   2.500   2.335   2.351   2.397   2.348   2.266   2.195   2.331   2.405   2.376   2.302   2.250   2.295   2.236   2.246   2.282   2.309   2.439   2.507   2.524   2.409   2.461   2.563   2.501   2.512   2.485   2.530   2.509   2.507   2.343   2.268   2.222   2.137   2.180   2.231   2.131   2.275   2.177   2.195   2.215   2.137   2.245   2.203   2.170   2.280   2.236   2.278   2.271   2.260   2.236   2.293   2.342   2.223   2.200   2.117   2.193   2.242   2.212   2.246   2.263   2.330   2.277   2.237   2.283   2.249   2.168   2.233   2.157   2.281   2.251   2.258   2.202   2.166   2.367   2.350   2.364   2.376   2.440   2.389   2.433   2.549   2.434   2.424   2.443   2.400   2.565   2.465   2.433   2.452   2.411   2.379   2.263   2.362   2.366   2.374   2.301   2.261   2.268   2.240   2.160   2.209   2.295   2.286   2.196   2.056   2.158   2.173   2.098   2.069   1.952   2.017   1.987   2.002   2.101   2.077   2.090   2.044   2.055   2.100   2.138   2.238   2.275   2.256   2.223   2.249   2.239   2.271   2.272   2.353   2.398   2.363   2.292   2.371   2.362   2.392   2.308   2.295   2.360   2.358   2.379   2.372   2.386   2.386   2.336   2.356   2.375   2.393   2.283   2.394   2.466   2.555   2.671   2.512   2.503   2.515   2.499   2.432   2.446   2.448   2.315   2.229   2.297   2.353   2.313   2.225   2.239   2.162   2.196   2.253   2.175   2.143   2.127   2.211   2.226   2.306   2.243   2.243   2.214   2.180   2.125   2.076   2.112   2.008   2.028   2.128   2.149   2.224   2.266   2.209   2.159   2.172   2.307   2.260   2.284   2.286   2.327   2.343   2.436   2.358   2.313   2.214   2.328   2.249   2.188   2.169   2.210   2.205   2.181   2.232   2.165   2.158   2.264   2.325   2.238   2.217   2.185   2.217   2.316   2.131   2.181   2.187   2.186   2.166   2.120   2.203   2.291   2.378   2.411   2.501   2.498   2.432   2.299   2.145   2.099   2.144   2.215   2.220   2.220   2.251   2.301   2.350   2.264   2.260
   165.52    2.264   2.329   2.339   2.322   2.280   2.145   2.269   2.189   2.192   2.334   2.371   2.374   2.222   2.311   2.290   2.208   2.162   2.264   2.201   2.189   2.186   2.256   2.296   2.285   2.210   2.257   2.225   2.310   2.314   2.390   2.387   2.402   2.544   2.617   2.472   2.498   2.569   2.571   2.525   2.582   2.597   2.580   2.531   2.367   2.426   2.446   2.487   2.433   2.407   2.413   2.291   2.341   2.296   2.227   2.098   2.125   2.208   2.309   2.192   2.208   2.173   2.272   2.304   2.422   2.523   2.626   2.590   2.544   2.560   2.547   2.503   2.412   2.418   2.369   2.333   2.461   2.432   2.398   2.466   2.420   2.414   2.338   2.397   2.349   2.297   2.275   2.401   2.271   2.383   2.400   2.255   2.352   2.398   2.384   2.358   2.351   2.354   2.407   2.380   2.429   2.437   2.455   2.413   2.290   2.266   2.238   2.232   2.423   2.426   2.406   2.398   2.179   2.124   2.159   2.215   2.105   2.174   2.167   2.087   1.991   2.024   2.052   2.012   2.035   2.089   2.064   2.105   2.064   2.020   2.015   2.046   1.956   2.015   2.124   2.169   2.225   2.256   2.204   2.195   2.235   2.327   2.336   2.394   2.370   2.340   2.324   2.243   2.315   2.428   2.469   2.423   2.407   2.378   2.431   2.381   2.447   2.433   2.469   2.405   2.383   2.402   2.355   2.306   2.201   2.268   2.305   2.425   2.409   2.394   2.366   2.259   2.218   2.164   2.317   2.436   2.413   2.483   2.478   2.545   2.596   2.634   2.593   2.541   2.556   2.567   2.530   2.440   2.317   2.135   2.121   2.167   2.218   2.179   2.193   2.200   2.235   2.216   2.229   2.266   2.166   2.046   2.253   2.235   2.238   2.252   2.210   2.310   2.345   2.349   2.312   2.191   2.116   2.127   2.212   2.225   2.250   2.222   2.277   2.248   2.269   2.320   2.220   2.151   2.112   2.148   2.244   2.259   2.153   2.129   2.286   2.394   2.306   2.270   2.258   2.311   2.290   2.384   2.368   2.451   2.392   2.394   2.402   2.453   2.415   2.445   2.463   2.483   2.335   2.396   2.346   2.268   2.282   2.204   2.172   2.237   2.113   2.102   2.107   2.222   2.204   2.186   2.154   2.061   2.106   2.102   2.076   2.017   2.006   1.921   1.989   2.003   2.084   2.106   2.082   2.052   2.178   2.133   2.110   2.255   2.285   2.262   2.250   2.268   2.223   2.261   2.270   2.307   2.349   2.353   2.476   2.478   2.324   2.329   2.310   2.355   2.331   2.366   2.373   2.358   2.361   2.339   2.340   2.315   2.330   2.348   2.343   2.443   2.625   2.616   2.592   2.576   2.498   2.523   2.531   2.381   2.360   2.255   2.140   2.342   2.334   2.359   2.402   2.193   2.203   2.177   2.202   2.200   2.261   2.153   2.154   2.253   2.252   2.178   2.127   2.199   2.189   2.131   2.138   2.133   2.004   2.035   2.093   2.133   2.169   2.176   2.172   2.188   2.291   2.260   2.241   2.279   2.327   2.314   2.296   2.347   2.227   2.273   2.289   2.341   2.209   2.186   2.189   2.188   2.190   2.191   2.168   2.223   2.256   2.263   2.365   2.198   2.239   2.149   2.200   2.286   2.245   2.162   2.229   2.094   2.095   2.178   2.324   2.352   2.348   2.349   2.382   2.414   2.352   2.319   2.294   2.248   2.196   2.231   2.250   2.257   2.243   2.304   2.425   2.339   2.256
   155.17    2.260   2.310   2.295   2.306   2.262   2.211   2.334   2.325   2.286   2.348   2.346   2.282   2.214   2.268   2.312   2.307   2.275   2.308   2.217   2.226   2.150   2.106   2.167   2.260   2.239   2.259   2.349   2.333   2.309   2.416   2.354   2.492   2.542   2.553   2.424   2.483   2.570   2.480   2.558   2.620   2.551   2.586   2.456   2.396   2.384   2.415   2.367   2.434   2.432   2.392   2.302   2.366   2.354   2.207   2.207   2.199   2.237   2.288   2.216   2.191   2.184   2.209   2.319   2.389   2.512   2.589   2.577   2.550   2.468   2.378   2.305   2.350   2.382   2.365   2.441   2.502   2.508   2.490   2.469   2.399   2.372   2.385   2.312   2.195   2.238   2.283   2.388   2.244   2.363   2.393   2.238   2.396   2.280   2.361   2.405   2.361   2.305   2.328   2.484   2.539   2.569   2.503   2.406   2.385   2.282   2.231   2.322   2.383   2.518   2.284   2.244   2.107   2.067   2.111   2.090   2.138   2.114   2.115   2.125   2.032   1.923   2.033   2.079   2.119   2.124   2.105   2.066   2.049   2.054   2.040   1.980   1.919   1.978   2.101   2.216   2.214   2.358   2.329   2.296   2.330   2.276   2.447   2.431   2.433   2.332   2.328   2.293   2.258   2.346   2.418   2.511   2.454   2.434   2.421   2.445   2.479   2.443   2.484   2.387   2.457   2.480   2.370   2.303   2.310   2.252   2.283   2.327   2.315   2.313   2.340   2.299   2.135   2.113   2.224   2.332   2.330   2.428   2.605   2.564   2.598   2.577   2.603   2.572   2.543   2.446   2.458   2.386   2.389   2.208   2.097   2.100   2.149   2.175   2.182   2.317   2.217   2.190   2.247   2.231   2.163   2.271   2.221   2.188   2.211   2.171   2.218   2.272   2.328   2.277   2.224   2.159   2.175   2.181   2.181   2.182   2.088   2.216   2.273   2.304   2.310   2.342   2.282   2.190   2.114   2.200   2.184   2.167   2.128   2.184   2.290   2.377   2.270   2.233   2.209   2.343   2.252   2.347   2.334   2.353   2.364   2.402   2.409   2.387   2.379   2.442   2.376   2.354   2.384   2.278   2.244   2.184   2.214   2.306   2.225   2.105   2.105   2.176   2.169   2.222   2.127   2.087   2.098   2.117   2.084   2.147   2.012   2.042   2.037   2.018   2.028   2.066   2.117   2.045   2.139   2.024   2.058   2.117   2.110   2.194   2.266   2.283   2.304   2.274   2.409   2.381   2.451   2.449   2.406   2.367   2.391   2.335   2.232   2.287   2.326   2.293   2.273   2.255   2.297   2.321   2.404   2.387   2.404   2.326   2.337   2.399   2.383   2.521   2.658   2.600   2.636   2.626   2.597   2.468   2.487   2.449   2.300   2.328   2.287   2.320   2.397   2.439   2.381   2.303   2.196   2.164   2.222   2.227   2.280   2.184   2.169   2.251   2.237   2.166   2.159   2.103   2.181   2.148   2.114   2.161   2.096   2.117   2.117   2.083   2.103   2.105   2.253   2.223   2.250   2.289   2.328   2.269   2.343   2.270   2.310   2.238   2.295   2.301   2.322   2.237   2.202   2.176   2.177   2.161   2.242   2.210   2.340   2.347   2.196   2.202   2.286   2.204   2.133   2.201   2.185   2.286   2.210   2.229   2.167   2.184   2.150   2.270   2.382   2.409   2.384   2.370   2.374   2.379   2.361   2.390   2.433   2.311   2.259   2.209   2.050   2.210   2.264   2.231   2.355   2.414   2.272
   144.83    2.226   2.228   2.303   2.243   2.268   2.268   2.309   2.245   2.220   2.263   2.273   2.254   2.301   2.330   2.380   2.314   2.248   2.278   2.255   2.172   2.129   2.159   2.149   2.114   2.157   2.332   2.331   2.457   2.450   2.424   2.411   2.518   2.602   2.583   2.507   2.436   2.477   2.472   2.525   2.602   2.637   2.584   2.607   2.484   2.388   2.320   2.292   2.297   2.345   2.229   2.374   2.353   2.360   2.321   2.204   2.216   2.249   2.236   2.310   2.225   2.150   2.202   2.257   2.318   2.358   2.415   2.395   2.425   2.398   2.366   2.316   2.340   2.329   2.299   2.353   2.428   2.485   2.527   2.578   2.468   2.365   2.324   2.259   2.283   2.280   2.241   2.329   2.329   2.381   2.390   2.296   2.348   2.268   2.344   2.398   2.460   2.374   2.488   2.533   2.524   2.608   2.552   2.487   2.413   2.335   2.347   2.366   2.470   2.402   2.315   2.244   2.159   2.089   2.054   2.044   2.024   2.012   2.088   2.149   2.058   2.035   2.042   2.113   2.146   2.183   2.200   2.111   2.075   2.032   2.161   2.068   1.971   1.984   2.075   2.172   2.187   2.309   2.299   2.382   2.325   2.396   2.358   2.424   2.418   2.277   2.233   2.304   2.313   2.455   2.518   2.534   2.434   2.453   2.543   2.620   2.631   2.598   2.538   2.440   2.395   2.355   2.447   2.370   2.314   2.266   2.241   2.343   2.347   2.296   2.282   2.310   2.183   2.144   2.146   2.246   2.240   2.379   2.408   2.559   2.551   2.478   2.577   2.566   2.426   2.474   2.318   2.330   2.248   2.226   2.137   2.199   2.161   2.219   2.196   2.215   2.222   2.147   2.154   2.153   2.243   2.212   2.200   2.167   2.156   2.224   2.264   2.288   2.338   2.337   2.254   2.232   2.173   2.197   2.219   2.234   2.213   2.236   2.273   2.360   2.330   2.249   2.189   2.121   2.142   2.078   2.172   2.178   2.074   2.148   2.217   2.250   2.306   2.239   2.228   2.261   2.173   2.324   2.281   2.429   2.434   2.462   2.390   2.393   2.332   2.434   2.422   2.293   2.293   2.345   2.371   2.353   2.291   2.279   2.255   2.255   2.161   2.169   2.263   2.261   2.153   2.065   2.111   2.088   2.114   2.088   2.123   2.053   1.993   2.038   2.027   2.072   2.215   2.063   2.047   2.092   2.098   2.167   2.147   2.186   2.250   2.312   2.263   2.332   2.423   2.393   2.498   2.376   2.353   2.348   2.359   2.338   2.288   2.343   2.339   2.321   2.249   2.338   2.289   2.309   2.383   2.388   2.406   2.376   2.356   2.370   2.332   2.495   2.499   2.579   2.572   2.559   2.481   2.411   2.311   2.347   2.290   2.286   2.225   2.296   2.362   2.428   2.454   2.389   2.278   2.256   2.193   2.170   2.220   2.179   2.233   2.203   2.210   2.132   2.146   2.103   2.124   2.115   2.160   2.234   2.177   2.190   2.072   2.024   2.179   2.179   2.264   2.202   2.202   2.301   2.335   2.292   2.288   2.236   2.320   2.231   2.264   2.296   2.313   2.305   2.190   2.184   2.128   2.151   2.254   2.234   2.235   2.304   2.273   2.281   2.273   2.250   2.161   2.171   2.220   2.263   2.234   2.272   2.244   2.177   2.301   2.314   2.441   2.446   2.501   2.407   2.295   2.363   2.326   2.340   2.333   2.215   2.287   2.173   2.115   2.198   2.209   2.211   2.317   2.342   2.367
   134.48    2.293   2.350   2.258   2.233   2.190   2.212   2.264   2.275   2.207   2.294   2.314   2.332   2.374   2.511   2.315   2.335   2.274   2.294   2.284   2.282   2.170   2.254   2.129   2.148   2.222   2.370   2.421   2.334   2.408   2.414   2.409   2.543   2.506   2.651   2.550   2.639   2.474   2.525   2.550   2.616   2.691   2.502   2.500   2.484   2.425   2.384   2.358   2.444   2.353   2.212   2.244   2.257   2.312   2.277   2.175   2.225   2.320   2.375   2.279   2.270   2.269   2.190   2.284   2.268   2.409   2.382   2.391   2.439   2.333   2.341   2.210   2.189   2.221   2.316   2.272   2.417   2.467   2.469   2.571   2.555   2.483   2.374   2.283   2.371   2.275   2.359   2.400   2.350   2.435   2.453   2.378   2.316   2.390   2.435   2.492   2.443   2.447   2.468   2.527   2.478   2.502   2.502   2.520   2.414   2.350   2.357   2.335   2.374   2.403   2.403   2.213   2.119   2.079   2.074   2.097   2.013   1.994   2.069   2.057   2.136   2.069   2.112   2.121   2.159   2.133   2.046   2.160   2.102   2.087   2.165   2.075   2.180   2.121   2.094   2.198   2.241   2.238   2.256   2.304   2.325   2.423   2.378   2.342   2.323   2.234   2.274   2.370   2.427   2.410   2.516   2.492   2.400   2.446   2.453   2.548   2.651   2.631   2.632   2.441   2.375   2.287   2.334   2.430   2.410   2.285   2.232   2.278   2.321   2.341   2.234   2.287   2.251   2.149   2.199   2.225   2.328   2.337   2.396   2.459   2.550   2.579   2.660   2.496   2.424   2.358   2.364   2.378   2.384   2.318   2.167   2.214   2.254   2.218   2.212   2.243   2.284   2.200   2.224   2.252   2.202   2.170   2.124   2.113   2.151   2.213   2.373   2.417   2.361   2.361   2.280   2.318   2.247   2.270   2.304   2.346   2.314   2.309   2.208   2.260   2.289   2.206   2.250   2.215   2.152   2.135   2.172   2.238   2.150   2.102   2.119   2.128   2.258   2.289   2.201   2.128   2.154   2.260   2.259   2.451   2.467   2.463   2.490   2.424   2.374   2.491   2.458   2.417   2.392   2.397   2.378   2.353   2.407   2.237   2.183   2.295   2.288   2.317   2.316   2.264   2.159   2.158   2.147   2.121   2.150   2.142   2.130   2.097   2.148   2.133   2.093   2.081   2.098   2.177   2.094   2.151   2.124   2.141   2.177   2.232   2.257   2.338   2.302   2.349   2.338   2.411   2.372   2.425   2.411   2.424   2.381   2.324   2.301   2.222   2.246   2.339   2.310   2.292   2.279   2.276   2.426   2.415   2.357   2.376   2.414   2.327   2.363   2.360   2.533   2.606   2.530   2.581   2.500   2.395   2.334   2.280   2.281   2.259   2.183   2.228   2.408   2.434   2.422   2.393   2.325   2.259   2.175   2.193   2.146   2.229   2.258   2.242   2.168   2.119   2.070   2.123   2.113   2.185   2.221   2.190   2.197   2.167   2.143   2.080   2.124   2.083   2.149   2.060   2.168   2.287   2.343   2.315   2.253   2.246   2.356   2.353   2.274   2.405   2.340   2.306   2.263   2.161   2.198   2.161   2.161   2.144   2.299   2.385   2.222   2.261   2.263   2.172   2.128   2.187   2.213   2.263   2.418   2.384   2.308   2.244   2.224   2.385   2.357   2.448   2.404   2.337   2.324   2.321   2.338   2.352   2.313   2.273   2.222   2.232   2.231   2.173   2.252   2.272   2.305   2.305   2.326
   124.14    2.282   2.335   2.247   2.245   2.183   2.180   2.261   2.306   2.323   2.317   2.331   2.442   2.367   2.439   2.386   2.255   2.367   2.381   2.411   2.398   2.318   2.300   2.225   2.239   2.268   2.370   2.460   2.479   2.450   2.456   2.454   2.517   2.534   2.614   2.518   2.537   2.413   2.432   2.483   2.656   2.566   2.388   2.393   2.427   2.373   2.416   2.407   2.446   2.410   2.256   2.188   2.266   2.270   2.270   2.335   2.260   2.275   2.367   2.292   2.246   2.306   2.252   2.267   2.330   2.416   2.417   2.394   2.436   2.350   2.330   2.145   2.144   2.130   2.196   2.288   2.280   2.378   2.504   2.611   2.533   2.416   2.407   2.392   2.338   2.319   2.374   2.320   2.365   2.445   2.479   2.448   2.387   2.406   2.439   2.421   2.482   2.466   2.513   2.506   2.436   2.495   2.434   2.420   2.396   2.324   2.433   2.384   2.288   2.339   2.366   2.240   2.213   2.078   2.155   2.088   2.032   2.013   2.010   2.112   2.122   2.057   1.969   1.996   2.114   2.174   2.150   2.161   2.117   2.192   2.294   2.177   2.191   2.097   2.175   2.208   2.276   2.310   2.354   2.410   2.324   2.323   2.363   2.331   2.271   2.230   2.351   2.354   2.455   2.479   2.455   2.425   2.487   2.534   2.599   2.539   2.647   2.671   2.535   2.453   2.361   2.413   2.414   2.454   2.492   2.296   2.213   2.184   2.240   2.246   2.319   2.260   2.203   2.328   2.240   2.287   2.337   2.392   2.446   2.419   2.473   2.550   2.576   2.436   2.331   2.342   2.326   2.388   2.399   2.406   2.296   2.201   2.224   2.228   2.164   2.204   2.297   2.348   2.319   2.260   2.279   2.306   2.189   2.178   2.143   2.220   2.317   2.372   2.239   2.389   2.384   2.375   2.212   2.263   2.322   2.410   2.460   2.339   2.191   2.201   2.217   2.254   2.297   2.223   2.109   2.131   2.213   2.257   2.289   2.199   2.203   2.094   2.196   2.243   2.152   2.291   2.301   2.307   2.376   2.414   2.503   2.564   2.559   2.524   2.486   2.522   2.434   2.405   2.439   2.403   2.373   2.222   2.283   2.262   2.209   2.348   2.409   2.269   2.384   2.353   2.168   2.200   2.196   2.283   2.091   2.086   2.163   2.117   2.183   2.074   2.055   2.064   2.079   2.112   2.150   2.105   2.061   2.034   2.094   2.071   2.189   2.271   2.295   2.370   2.350   2.321   2.230   2.283   2.341   2.473   2.370   2.349   2.318   2.226   2.257   2.336   2.306   2.342   2.341   2.329   2.334   2.343   2.496   2.478   2.363   2.311   2.303   2.403   2.488   2.519   2.570   2.457   2.499   2.421   2.394   2.352   2.307   2.364   2.287   2.305   2.323   2.440   2.360   2.426   2.324   2.239   2.270   2.240   2.229   2.269   2.313   2.193   2.196   2.111   2.082   2.046   2.119   2.196   2.153   2.253   2.102   2.158   2.136   2.112   2.084   2.077   2.112   2.164   2.174   2.215   2.278   2.322   2.284   2.224   2.335   2.338   2.335   2.279   2.429   2.352   2.240   2.195   2.182   2.159   2.220   2.255   2.312   2.330   2.282   2.212   2.191   2.190   2.237   2.133   2.160   2.311   2.407   2.355   2.381   2.208   2.354   2.331   2.393   2.432   2.451   2.362   2.302   2.246   2.221   2.231   2.253   2.208   2.229   2.252   2.310   2.323   2.434   2.403   2.333   2.361   2.358
   113.79    2.355   2.370   2.334   2.171   2.189   2.203   2.241   2.199   2.199   2.314   2.394   2.338   2.336   2.508   2.486   2.438   2.425   2.523   2.487   2.414   2.341   2.212   2.224   2.327   2.357   2.419   2.482   2.535   2.335   2.381   2.249   2.393   2.442   2.503   2.432   2.414   2.381   2.365   2.354   2.430   2.392   2.313   2.465   2.457   2.259   2.324   2.341   2.330   2.401   2.302   2.178   2.149   2.244   2.292   2.274   2.341   2.233   2.380   2.372   2.270   2.256   2.242   2.352   2.260   2.316   2.387   2.375   2.380   2.409   2.305   2.212   2.190   2.178   2.088   2.259   2.231   2.450   2.504   2.674   2.640   2.565   2.497   2.457   2.387   2.491   2.345   2.393   2.467   2.423   2.429   2.308   2.406   2.583   2.493   2.390   2.400   2.567   2.562   2.428   2.365   2.359   2.353   2.359   2.327   2.328   2.321   2.353   2.311   2.301   2.308   2.230   2.184   2.164   2.178   2.113   2.038   2.051   2.080   2.071   2.028   2.029   2.004   2.032   2.179   2.207   2.214   2.131   2.067   2.252   2.276   2.212   2.213   2.216   2.257   2.271   2.279   2.314   2.335   2.428   2.373   2.267   2.337   2.444   2.340   2.298   2.381   2.404   2.477   2.470   2.534   2.488   2.426   2.480   2.592   2.597   2.657   2.618   2.473   2.412   2.386   2.378   2.465   2.431   2.574   2.410   2.201   2.207   2.126   2.165   2.245   2.289   2.275   2.270   2.393   2.277   2.441   2.389   2.330   2.466   2.481   2.518   2.456   2.466   2.475   2.499   2.417   2.504   2.370   2.410   2.340   2.285   2.237   2.319   2.275   2.300   2.242   2.289   2.243   2.337   2.298   2.268   2.262   2.238   2.280   2.378   2.274   2.334   2.306   2.439   2.482   2.523   2.353   2.387   2.417   2.348   2.425   2.393   2.354   2.296   2.214   2.260   2.261   2.319   2.235   2.263   2.236   2.183   2.177   2.077   2.233   2.125   2.216   2.234   2.207   2.158   2.318   2.343   2.380   2.294   2.397   2.472   2.450   2.453   2.551   2.489   2.455   2.323   2.402   2.345   2.282   2.214   2.259   2.206   2.302   2.308   2.230   2.328   2.379   2.419   2.309   2.242   2.210   2.205   2.149   2.138   2.029   2.027   2.146   2.107   2.125   2.052   2.095   2.013   2.097   2.137   2.074   2.075   2.097   2.074   2.137   2.248   2.164   2.221   2.199   2.267   2.172   2.257   2.263   2.339   2.396   2.380   2.288   2.213   2.219   2.310   2.362   2.333   2.275   2.340   2.411   2.426   2.485   2.387   2.438   2.310   2.310   2.381   2.502   2.471   2.401   2.371   2.529   2.559   2.502   2.539   2.462   2.364   2.319   2.372   2.423   2.462   2.387   2.401   2.315   2.176   2.195   2.258   2.272   2.269   2.260   2.182   2.135   2.145   2.123   2.046   2.213   2.211   2.214   2.214   2.188   2.126   2.185   2.164   2.134   2.136   2.142   2.068   2.137   2.208   2.209   2.203   2.246   2.278   2.335   2.424   2.341   2.323   2.365   2.394   2.317   2.341   2.240   2.260   2.241   2.291   2.322   2.327   2.313   2.214   2.077   2.116   2.183   2.178   2.203   2.342   2.376   2.324   2.373   2.416   2.296   2.282   2.316   2.325   2.432   2.321   2.357   2.213   2.232   2.262   2.221   2.155   2.227   2.322   2.367   2.423   2.353   2.266   2.375   2.366   2.455
   103.45    2.216   2.211   2.226   2.090   2.076   2.164   2.271   2.279   2.191   2.304   2.314   2.383   2.400   2.390   2.464   2.398   2.420   2.446   2.440   2.335   2.245   2.314   2.299   2.262   2.283   2.322   2.531   2.439   2.472   2.420   2.347   2.271   2.307   2.358   2.413   2.335   2.351   2.392   2.280   2.349   2.485   2.470   2.403   2.341   2.246   2.320   2.341   2.252   2.268   2.210   2.199   2.200   2.159   2.300   2.301   2.401   2.272   2.352   2.349   2.266   2.208   2.300   2.293   2.296   2.354   2.380   2.444   2.366   2.337   2.366   2.273   2.143   2.134   2.186   2.170   2.184   2.330   2.413   2.604   2.597   2.662   2.525   2.501   2.481   2.513   2.416   2.393   2.421   2.395   2.351   2.415   2.457   2.559   2.482   2.392   2.449   2.438   2.458   2.421   2.293   2.291   2.222   2.300   2.295   2.289   2.331   2.269   2.225   2.259   2.310   2.320   2.165   2.106   2.138   2.145   2.061   2.010   2.112   2.137   2.018   2.013   1.974   2.015   2.013   2.208   2.266   2.177   2.129   2.281   2.324   2.336   2.318   2.279   2.323   2.396   2.428   2.431   2.410   2.334   2.351   2.399   2.481   2.561   2.499   2.453   2.449   2.533   2.456   2.488   2.546   2.424   2.479   2.418   2.619   2.545   2.568   2.606   2.519   2.550   2.463   2.463   2.409   2.515   2.532   2.437   2.300   2.213   2.211   2.195   2.247   2.325   2.291   2.301   2.328   2.355   2.429   2.506   2.344   2.372   2.400   2.419   2.406   2.440   2.523   2.507   2.515   2.513   2.472   2.408   2.379   2.402   2.227   2.297   2.233   2.206   2.117   2.208   2.351   2.346   2.403   2.363   2.366   2.358   2.325   2.267   2.357   2.323   2.413   2.392   2.472   2.518   2.453   2.461   2.460   2.352   2.381   2.367   2.423   2.420   2.393   2.246   2.211   2.256   2.254   2.329   2.227   2.251   2.180   2.076   2.164   2.158   2.027   2.172   2.215   2.180   2.243   2.212   2.334   2.271   2.370   2.367   2.396   2.545   2.428   2.406   2.383   2.394   2.335   2.354   2.259   2.277   2.267   2.301   2.316   2.328   2.360   2.327   2.438   2.373   2.387   2.202   2.176   2.179   2.141   2.090   2.072   2.031   2.026   2.100   2.100   2.053   2.093   2.063   2.125   2.072   2.146   2.178   2.126   2.122   2.102   2.222   2.136   2.154   2.172   2.231   2.300   2.255   2.253   2.373   2.338   2.307   2.178   2.147   2.107   2.235   2.184   2.276   2.301   2.368   2.401   2.414   2.391   2.379   2.410   2.260   2.388   2.452   2.478   2.526   2.481   2.500   2.475   2.498   2.556   2.489   2.533   2.471   2.391   2.393   2.365   2.430   2.427   2.422   2.267   2.213   2.203   2.210   2.249   2.244   2.192   2.112   2.090   2.078   2.146   2.164   2.207   2.198   2.235   2.278   2.307   2.190   2.129   2.061   2.144   2.135   2.117   2.057   2.128   2.117   2.223   2.171   2.227   2.195   2.160   2.297   2.288   2.303   2.331   2.333   2.310   2.221   2.277   2.182   2.190   2.211   2.268   2.300   2.261   2.178   2.120   2.106   2.199   2.231   2.243   2.385   2.386   2.399   2.445   2.360   2.388   2.224   2.261   2.373   2.345   2.360   2.442   2.324   2.303   2.318   2.220   2.170   2.214   2.304   2.362   2.378   2.257   2.276   2.330   2.323   2.387
    93.10    2.233   2.242   2.270   2.181   2.226   2.203   2.241   2.214   2.190   2.249   2.330   2.368   2.303   2.260   2.343   2.360   2.445   2.429   2.314   2.333   2.325   2.340   2.257   2.292   2.262   2.370   2.419   2.548   2.442   2.376   2.405   2.354   2.424   2.418   2.418   2.350   2.368   2.259   2.250   2.403   2.447   2.416   2.240   2.325   2.267   2.204   2.267   2.270   2.205   2.112   2.078   2.180   2.283   2.335   2.242   2.298   2.293   2.251   2.241   2.225   2.215   2.244   2.275   2.255   2.349   2.380   2.320   2.276   2.401   2.326   2.309   2.253   2.210   2.233   2.144   2.323   2.388   2.417   2.444   2.551   2.612   2.712   2.615   2.524   2.582   2.381   2.394   2.465   2.396   2.409   2.473   2.522   2.594   2.600   2.509   2.514   2.446   2.529   2.436   2.262   2.294   2.274   2.203   2.225   2.228   2.249   2.276   2.328   2.361   2.335   2.269   2.292   2.207   2.215   2.105   2.096   2.045   2.032   1.973   2.001   2.020   1.974   2.035   1.981   2.184   2.275   2.185   2.214   2.357   2.363   2.328   2.354   2.494   2.501   2.518   2.463   2.462   2.368   2.293   2.266   2.335   2.473   2.443   2.409   2.453   2.547   2.452   2.472   2.525   2.501   2.418   2.471   2.452   2.545   2.492   2.603   2.621   2.422   2.462   2.447   2.468   2.397   2.477   2.455   2.482   2.324   2.199   2.240   2.257   2.295   2.385   2.333   2.185   2.248   2.341   2.399   2.540   2.418   2.357   2.309   2.427   2.337   2.365   2.479   2.466   2.545   2.523   2.420   2.372   2.297   2.246   2.227   2.269   2.233   2.192   2.185   2.241   2.350   2.377   2.371   2.336   2.360   2.381   2.336   2.305   2.356   2.283   2.411   2.382   2.451   2.512   2.485   2.387   2.312   2.327   2.373   2.361   2.413   2.412   2.399   2.314   2.314   2.303   2.246   2.162   2.209   2.245   2.173   2.192   2.111   2.077   2.174   2.107   2.123   2.248   2.284   2.228   2.240   2.310   2.303   2.378   2.511   2.499   2.415   2.373   2.364   2.333   2.330   2.278   2.247   2.260   2.242   2.293   2.327   2.312   2.267   2.303   2.373   2.395   2.423   2.229   2.205   2.210   2.116   2.128   2.094   2.090   2.054   2.004   2.122   2.146   2.098   2.132   2.089   2.053   2.159   2.226   2.190   2.146   2.141   2.207   2.230   2.184   2.188   2.241   2.243   2.240   2.250   2.283   2.293   2.260   2.172   2.212   2.229   2.271   2.296   2.275   2.267   2.326   2.387   2.475   2.433   2.373   2.418   2.321   2.424   2.428   2.625   2.604   2.617   2.698   2.623   2.526   2.535   2.513   2.453   2.385   2.401   2.401   2.341   2.365   2.437   2.300   2.248   2.181   2.153   2.123   2.237   2.254   2.163   2.189   2.213   2.166   2.155   2.108   2.213   2.257   2.211   2.173   2.236   2.155   2.143   2.178   2.041   2.123   2.059   2.108   2.205   2.266   2.340   2.254   2.234   2.258   2.248   2.299   2.402   2.443   2.388   2.324   2.178   2.165   2.212   2.163   2.174   2.127   2.201   2.243   2.114   2.135   2.118   2.072   2.211   2.306   2.225   2.359   2.437   2.417   2.375   2.356   2.325   2.260   2.284   2.310   2.366   2.434   2.401   2.393   2.313   2.333   2.255   2.129   2.193   2.404   2.341   2.336   2.376   2.378   2.321   2.389   2.376
[...]
    51.72    1.142   1.142   1.142   1.142   1.142   1.142   1.142   1.142   1.142   1.142   1.142   1.142   1.142   1.142   1.142   1.142   1.142   1.142   1.142   1.142   1.142   1.142   1.142   1.142   1.142   1.142   1.142   1.142   1.142   1.142   1.142   1.142   1.142   1.142   1.142   1.142   1.142   1.142   1.142   1.142   1.142   1.142   1.142   1.142   1.142   1.142   1.142   1.142   1.142   1.142   1.142   1.142   1.142   1.142   1.142   1.142   1.142   1.142   1.142   1.142   1.142   1.142   1.142   1.142   1.142   1.142   1.142   1.142   1.142   1.142   1.142   1.142   1.142   1.142   1.142   1.142   1.142   1.142   1.142   1.142   1.142   1.142   1.142   1.142   1.142   1.142   1.142   1.142   1.142   1.142   1.142   1.142   1.142   1.142   1.142   1.142   1.142   1.142   1.142   1.142   1.142   1.142   1.142   1.142   1.142   1.142   1.142   1.142   1.142   1.142   1.142   1.142   1.142   1.142   1.142   1.142   1.142   1.142   1.142   1.142   1.142   1.142   1.142   1.142   1.142   1.142   1.142   1.142   1.142   1.142   1.142   1.142   1.142   1.142   1.142   1.142   1.142   1.142   1.142   1.142   1.142   1.142   1.142   1.142   1.142   1.142   1.142   1.142   1.142   1.142   1.142   1.142   1.142   1.142   1.142   1.142   1.142   1.142   1.142   1.142   1.142   1.142   1.142   1.142   1.142   1.142   1.142   1.142   1.142   1.142   1.142   1.142   1.142   1.142   1.142   1.142   1.142   1.142   1.142   1.142   1.142   1.142   1.142   1.142   1.142   1.142   1.142   1.142   1.142   1.142   1.142   1.142   1.142   1.142   1.142   1.142   1.142   1.142   1.142   1.142   1.142   1.142   1.142   1.142   1.142   1.142   1.142   1.142   1.142   1.142   1.142   1.142   1.142   1.142   1.142   1.142   1.142   1.142   1.142   1.142   1.142   1.142   1.142   1.142   1.142   1.142   1.142   1.142   1.142   1.142   1.142   1.142   1.142   1.142   1.142   1.142   1.142   1.142   1.142   1.142   1.142   1.142   1.142   1.142   1.142   1.142   1.142   1.142   1.142   1.142   1.142   1.142   1.142   1.142   1.142   1.142   1.142   1.142   1.142   1.142   1.142   1.142   1.142   1.142   1.142   1.142   1.142   1.142   1.142   1.142   1.142   1.142   1.142   1.142   1.142   1.142   1.142   1.142   1.142   1.142   1.142   1.142   1.142   1.142   1.142   1.142   1.142   1.142   1.142   1.142   1.142   1.142   1.142   1.142   1.142   1.142   1.142   1.142   1.142   1.142   1.142   1.142   1.142   1.142   1.142   1.142   1.142   1.142   1.142   1.142   1.142   1.142   1.142   1.142   1.142   1.142   1.142   1.142   1.142   1.142   1.142   1.142   1.142   1.142   1.142   1.142   1.142   1.142   1.142   1.142   1.142   1.142   1.142   1.142   1.142   1.142   1.142   1.142   1.142   1.142   1.142   1.142   1.142   1.142   1.142   1.142   1.142   1.142   1.142   1.142   1.142   1.142   1.142   1.142   1.142   1.142   1.142   1.142   1.142   1.142   1.142   1.142   1.142   1.142   1.142   1.142   1.142   1.142   1.142   1.142   1.142   1.142   1.142   1.142   1.142   1.142   1.142   1.142   1.142   1.142   1.142   1.142   1.142   1.142   1.142   1.142   1.142   1.142   1.142   1.142   1.142   1.142   1.142   1.142   1.142   1.142   1.142   1.142   1.142   1.142
    41.38    1.142   1.142   1.142   1.142   1.142   1.142   1.142   1.142   1.142   1.142   1.142   1.142   1.142   1.142   1.142   1.142   1.142   1.142   1.142   1.142   1.142   1.142   1.142   1.142   1.142   1.142   1.142   1.142   1.142   1.142   1.142   1.142   1.142   1.142   1.142   1.142   1.142   1.142   1.142   1.142   1.142   1.142   1.142   1.142   1.142   1.142   1.142   1.142   1.142   1.142   1.142   1.142   1.142   1.142   1.142   1.142   1.142   1.142   1.142   1.142   1.142   1.142   1.142   1.142   1.142   1.142   1.142   1.142   1.142   1.142   1.142   1.142   1.142   1.142   1.142   1.142   1.142   1.142   1.142   1.142   1.142   1.142   1.142   1.142   1.142   1.142   1.142   1.142   1.142   1.142   1.142   1.142   1.142   1.142   1.142   1.142   1.142   1.142   1.142   1.142   1.142   1.142   1.142   1.142   1.142   1.142   1.142   1.142   1.142   1.142   1.142   1.142   1.142   1.142   1.142   1.142   1.142   1.142   1.142   1.142   1.142   1.142   1.142   1.142   1.142   1.142   1.142   1.142   1.142   1.142   1.142   1.142   1.142   1.142   1.142   1.142   1.142   1.142   1.142   1.142   1.142   1.142   1.142   1.142   1.142   1.142   1.142   1.142   1.142   1.142   1.142   1.142   1.142   1.142   1.142   1.142   1.142   1.142   1.142   1.142   1.142   1.142   1.142   1.142   1.142   1.142   1.142   1.142   1.142   1.142   1.142   1.142   1.142   1.142   1.142   1.142   1.142   1.142   1.142   1.142   1.142   1.142   1.142   1.142   1.142   1.142   1.142   1.142   1.142   1.142   1.142   1.142   1.142   1.142   1.142   1.142   1.142   1.142   1.142   1.142   1.142   1.142   1.142   1.142   1.142   1.142   1.142   1.142   1.142   1.142   1.142   1.142   1.142   1.142   1.142   1.142   1.142   1.142   1.142   1.142   1.142   1.142   1.142   1.142   1.142   1.142   1.142   1.142   1.142   1.142   1.142   1.142   1.142   1.142   1.142   1.142   1.142   1.142   1.142   1.142   1.142   1.142   1.142   1.142   1.142   1.142   1.142   1.142   1.142   1.142   1.142   1.142   1.142   1.142   1.142   1.142   1.142   1.142   1.142   1.142   1.142   1.142   1.142   1.142   1.142   1.142   1.142   1.142   1.142   1.142   1.142   1.142   1.142   1.142   1.142   1.142   1.142   1.142   1.142   1.142   1.142   1.142   1.142   1.142   1.142   1.142   1.142   1.142   1.142   1.142   1.142   1.142   1.142   1.142   1.142   1.142   1.142   1.142   1.142   1.142   1.142   1.142   1.142   1.142   1.142   1.142   1.142   1.142   1.142   1.142   1.142   1.142   1.142   1.142   1.142   1.142   1.142   1.142   1.142   1.142   1.142   1.142   1.142   1.142   1.142   1.142   1.142   1.142   1.142   1.142   1.142   1.142   1.142   1.142   1.142   1.142   1.142   1.142   1.142   1.142   1.142   1.142   1.142   1.142   1.142   1.142   1.142   1.142   1.142   1.142   1.142   1.142   1.142   1.142   1.142   1.142   1.142   1.142   1.142   1.142   1.142   1.142   1.142   1.142   1.142   1.142   1.142   1.142   1.142   1.142   1.142   1.142   1.142   1.142   1.142   1.142   1.142   1.142   1.142   1.142   1.142   1.142   1.142   1.142   1.142   1.142   1.142   1.142   1.142   1.142   1.142   1.142   1.142   1.142   1.142   1.142   1.142   1.142   1.142   1.142
    31.03    1.142   1.142   1.142   1.142   1.142   1.142   1.142   1.142   1.142   1.142   1.142   1.142   1.142   1.142   1.142   1.142   1.142   1.142   1.142   1.142   1.142   1.142   1.142   1.142   1.142   1.142   1.142   1.142   1.142   1.142   1.142   1.142   1.142   1.142   1.142   1.142   1.142   1.142   1.142   1.142   1.142   1.142   1.142   1.142   1.142   1.142   1.142   1.142   1.142   1.142   1.142   1.142   1.142   1.142   1.142   1.142   1.142   1.142   1.142   1.142   1.142   1.142   1.142   1.142   1.142   1.142   1.142   1.142   1.142   1.142   1.142   1.142   1.142   1.142   1.142   1.142   1.142   1.142   1.142   1.142   1.142   1.142   1.142   1.142   1.142   1.142   1.142   1.142   1.142   1.142   1.142   1.142   1.142   1.142   1.142   1.142   1.142   1.142   1.142   1.142   1.142   1.142   1.142   1.142   1.142   1.142   1.142   1.142   1.142   1.142   1.142   1.142   1.142   1.142   1.142   1.142   1.142   1.142   1.142   1.142   1.142   1.142   1.142   1.142   1.142   1.142   1.142   1.142   1.142   1.142   1.142   1.142   1.142   1.142   1.142   1.142   1.142   1.142   1.142   1.142   1.142   1.142   1.142   1.142   1.142   1.142   1.142   1.142   1.142   1.142   1.142   1.142   1.142   1.142   1.142   1.142   1.142   1.142   1.142   1.142   1.142   1.142   1.142   1.142   1.142   1.142   1.142   1.142   1.142   1.142   1.142   1.142   1.142   1.142   1.142   1.142   1.142   1.142   1.142   1.142   1.142   1.142   1.142   1.142   1.142   1.142   1.142   1.142   1.142   1.142   1.142   1.142   1.142   1.142   1.142   1.142   1.142   1.142   1.142   1.142   1.142   1.142   1.142   1.142   1.142   1.142   1.142   1.142   1.142   1.142   1.142   1.142   1.142   1.142   1.142   1.142   1.142   1.142   1.142   1.142   1.142   1.142   1.142   1.142   1.142   1.142   1.142   1.142   1.142   1.142   1.142   1.142   1.142   1.142   1.142   1.142   1.142   1.142   1.142   1.142   1.142   1.142   1.142   1.142   1.142   1.142   1.142   1.142   1.142   1.142   1.142   1.142   1.142   1.142   1.142   1.142   1.142   1.142   1.142   1.142   1.142   1.142   1.142   1.142   1.142   1.142   1.142   1.142   1.142   1.142   1.142   1.142   1.142   1.142   1.142   1.142   1.142   1.142   1.142   1.142   1.142   1.142   1.142   1.142   1.142   1.142   1.142   1.142   1.142   1.142   1.142   1.142   1.142   1.142   1.142   1.142   1.142   1.142   1.142   1.142   1.142   1.142   1.142   1.142   1.142   1.142   1.142   1.142   1.142   1.142   1.142   1.142   1.142   1.142   1.142   1.142   1.142   1.142   1.142   1.142   1.142   1.142   1.142   1.142   1.142   1.142   1.142   1.142   1.142   1.142   1.142   1.142   1.142   1.142   1.142   1.142   1.142   1.142   1.142   1.142   1.142   1.142   1.142   1.142   1.142   1.142   1.142   1.142   1.142   1.142   1.142   1.142   1.142   1.142   1.142   1.142   1.142   1.142   1.142   1.142   1.142   1.142   1.142   1.142   1.142   1.142   1.142   1.142   1.142   1.142   1.142   1.142   1.142   1.142   1.142   1.142   1.142   1.142   1.142   1.142   1.142   1.142   1.142   1.142   1.142   1.142   1.142   1.142   1.142   1.142   1.142   1.142   1.142   1.142   1.142   1.142   1.142   1.142   1.142   1.142
    20.69    1.142   1.142   1.142   1.142   1.142   1.142   1.142   1.142   1.142   1.142   1.142   1.142   1.142   1.142   1.142   1.142   1.142   1.142   1.142   1.142   1.142   1.142   1.142   1.142   1.142   1.142   1.142   1.142   1.142   1.142   1.142   1.142   1.142   1.142   1.142   1.142   1.142   1.142   1.142   1.142   1.142   1.142   1.142   1.142   1.142   1.142   1.142   1.142   1.142   1.142   1.142   1.142   1.142   1.142   1.142   1.142   1.142   1.142   1.142   1.142   1.142   1.142   1.142   1.142   1.142   1.142   1.142   1.142   1.142   1.142   1.142   1.142   1.142   1.142   1.142   1.142   1.142   1.142   1.142   1.142   1.142   1.142   1.142   1.142   1.142   1.142   1.142   1.142   1.142   1.142   1.142   1.142   1.142   1.142   1.142   1.142   1.142   1.142   1.142   1.142   1.142   1.142   1.142   1.142   1.142   1.142   1.142   1.142   1.142   1.142   1.142   1.142   1.142   1.142   1.142   1.142   1.142   1.142   1.142   1.142   1.142   1.142   1.142   1.142   1.142   1.142   1.142   1.142   1.142   1.142   1.142   1.142   1.142   1.142   1.142   1.142   1.142   1.142   1.142   1.142   1.142   1.142   1.142   1.142   1.142   1.142   1.142   1.142   1.142   1.142   1.142   1.142   1.142   1.142   1.142   1.142   1.142   1.142   1.142   1.142   1.142   1.142   1.142   1.142   1.142   1.142   1.142   1.142   1.142   1.142   1.142   1.142   1.142   1.142   1.142   1.142   1.142   1.142   1.142   1.142   1.142   1.142   1.142   1.142   1.142   1.142   1.142   1.142   1.142   1.142   1.142   1.142   1.142   1.142   1.142   1.142   1.142   1.142   1.142   1.142   1.142   1.142   1.142   1.142   1.142   1.142   1.142   1.142   1.142   1.142   1.142   1.142   1.142   1.142   1.142   1.142   1.142   1.142   1.142   1.142   1.142   1.142   1.142   1.142   1.142   1.142   1.142   1.142   1.142   1.142   1.142   1.142   1.142   1.142   1.142   1.142   1.142   1.142   1.142   1.142   1.142   1.142   1.142   1.142   1.142   1.142   1.142   1.142   1.142   1.142   1.142   1.142   1.142   1.142   1.142   1.142   1.142   1.142   1.142   1.142   1.142   1.142   1.142   1.142   1.142   1.142   1.142   1.142   1.142   1.142   1.142   1.142   1.142   1.142   1.142   1.142   1.142   1.142   1.142   1.142   1.142   1.142   1.142   1.142   1.142   1.142   1.142   1.142   1.142   1.142   1.142   1.142   1.142   1.142   1.142   1.142   1.142   1.142   1.142   1.142   1.142   1.142   1.142   1.142   1.142   1.142   1.142   1.142   1.142   1.142   1.142   1.142   1.142   1.142   1.142   1.142   1.142   1.142   1.142   1.142   1.142   1.142   1.142   1.142   1.142   1.142   1.142   1.142   1.142   1.142   1.142   1.142   1.142   1.142   1.142   1.142   1.142   1.142   1.142   1.142   1.142   1.142   1.142   1.142   1.142   1.142   1.142   1.142   1.142   1.142   1.142   1.142   1.142   1.142   1.142   1.142   1.142   1.142   1.142   1.142   1.142   1.142   1.142   1.142   1.142   1.142   1.142   1.142   1.142   1.142   1.142   1.142   1.142   1.142   1.142   1.142   1.142   1.142   1.142   1.142   1.142   1.142   1.142   1.142   1.142   1.142   1.142   1.142   1.142   1.142   1.142   1.142   1.142   1.142   1.142   1.142   1.142   1.142   1.142   1.142
    10.34    1.142   1.142   1.142   1.142   1.142   1.142   1.142   1.142   1.142   1.142   1.142   1.142   1.142   1.142   1.142   1.142   1.142   1.142   1.142   1.142   1.142   1.142   1.142   1.142   1.142   1.142   1.142   1.142   1.142   1.142   1.142   1.142   1.142   1.142   1.142   1.142   1.142   1.142   1.142   1.142   1.142   1.142   1.142   1.142   1.142   1.142   1.142   1.142   1.142   1.142   1.142   1.142   1.142   1.142   1.142   1.142   1.142   1.142   1.142   1.142   1.142   1.142   1.142   1.142   1.142   1.142   1.142   1.142   1.142   1.142   1.142   1.142   1.142   1.142   1.142   1.142   1.142   1.142   1.142   1.142   1.142   1.142   1.142   1.142   1.142   1.142   1.142   1.142   1.142   1.142   1.142   1.142   1.142   1.142   1.142   1.142   1.142   1.142   1.142   1.142   1.142   1.142   1.142   1.142   1.142   1.142   1.142   1.142   1.142   1.142   1.142   1.142   1.142   1.142   1.142   1.142   1.142   1.142   1.142   1.142   1.142   1.142   1.142   1.142   1.142   1.142   1.142   1.142   1.142   1.142   1.142   1.142   1.142   1.142   1.142   1.142   1.142   1.142   1.142   1.142   1.142   1.142   1.142   1.142   1.142   1.142   1.142   1.142   1.142   1.142   1.142   1.142   1.142   1.142   1.142   1.142   1.142   1.142   1.142   1.142   1.142   1.142   1.142   1.142   1.142   1.142   1.142   1.142   1.142   1.142   1.142   1.142   1.142   1.142   1.142   1.142   1.142   1.142   1.142   1.142   1.142   1.142   1.142   1.142   1.142   1.142   1.142   1.142   1.142   1.142   1.142   1.142   1.142   1.142   1.142   1.142   1.142   1.142   1.142   1.142   1.142   1.142   1.142   1.142   1.142   1.142   1.142   1.142   1.142   1.142   1.142   1.142   1.142   1.142   1.142   1.142   1.142   1.142   1.142   1.142   1.142   1.142   1.142   1.142   1.142   1.142   1.142   1.142   1.142   1.142   1.142   1.142   1.142   1.142   1.142   1.142   1.142   1.142   1.142   1.142   1.142   1.142   1.142   1.142   1.142   1.142   1.142   1.142   1.142   1.142   1.142   1.142   1.142   1.142   1.142   1.142   1.142   1.142   1.142   1.142   1.142   1.142   1.142   1.142   1.142   1.142   1.142   1.142   1.142   1.142   1.142   1.142   1.142   1.142   1.142   1.142   1.142   1.142   1.142   1.142   1.142   1.142   1.142   1.142   1.142   1.142   1.142   1.142   1.142   1.142   1.142   1.142   1.142   1.142   1.142   1.142   1.142   1.142   1.142   1.142   1.142   1.142   1.142   1.142   1.142   1.142   1.142   1.142   1.142   1.142   1.142   1.142   1.142   1.142   1.142   1.142   1.142   1.142   1.142   1.142   1.142   1.142   1.142   1.142   1.142   1.142   1.142   1.142   1.142   1.142   1.142   1.142   1.142   1.142   1.142   1.142   1.142   1.142   1.142   1.142   1.142   1.142   1.142   1.142   1.142   1.142   1.142   1.142   1.142   1.142   1.142   1.142   1.142   1.142   1.142   1.142   1.142   1.142   1.142   1.142   1.142   1.142   1.142   1.142   1.142   1.142   1.142   1.142   1.142   1.142   1.142   1.142   1.142   1.142   1.142   1.142   1.142   1.142   1.142   1.142   1.142   1.142   1.142   1.142   1.142   1.142   1.142   1.142   1.142   1.142   1.142   1.142   1.142   1.142   1.142   1.142   1.142   1.142   1.142   1.142
     0.00    1.142   1.142   1.142   1.142   1.142   1.142   1.142   1.142   1.142   1.142   1.142   1.142   1.142   1.142   1.142   1.142   1.142   1.142   1.142   1.142   1.142   1.142   1.142   1.142   1.142   1.142   1.142   1.142   1.142   1.142   1.142   1.142   1.142   1.142   1.142   1.142   1.142   1.142   1.142   1.142   1.142   1.142   1.142   1.142   1.142   1.142   1.142   1.142   1.142   1.142   1.142   1.142   1.142   1.142   1.142   1.142   1.142   1.142   1.142   1.142   1.142   1.142   1.142   1.142   1.142   1.142   1.142   1.142   1.142   1.142   1.142   1.142   1.142   1.142   1.142   1.142   1.142   1.142   1.142   1.142   1.142   1.142   1.142   1.142   1.142   1.142   1.142   1.142   1.142   1.142   1.142   1.142   1.142   1.142   1.142   1.142   1.142   1.142   1.142   1.142   1.142   1.142   1.142   1.142   1.142   1.142   1.142   1.142   1.142   1.142   1.142   1.142   1.142   1.142   1.142   1.142   1.142   1.142   1.142   1.142   1.142   1.142   1.142   1.142   1.142   1.142   1.142   1.142   1.142   1.142   1.142   1.142   1.142   1.142   1.142   1.142   1.142   1.142   1.142   1.142   1.142   1.142   1.142   1.142   1.142   1.142   1.142   1.142   1.142   1.142   1.142   1.142   1.142   1.142   1.142   1.142   1.142   1.142   1.142   1.142   1.142   1.142   1.142   1.142   1.142   1.142   1.142   1.142   1.142   1.142   1.142   1.142   1.142   1.142   1.142   1.142   1.142   1.142   1.142   1.142   1.142   1.142   1.142   1.142   1.142   1.142   1.142   1.142   1.142   1.142   1.142   1.142   1.142   1.142   1.142   1.142   1.142   1.142   1.142   1.142   1.142   1.142   1.142   1.142   1.142   1.142   1.142   1.142   1.142   1.142   1.142   1.142   1.142   1.142   1.142   1.142   1.142   1.142   1.142   1.142   1.142   1.142   1.142   1.142   1.142   1.142   1.142   1.142   1.142   1.142   1.142   1.142   1.142   1.142   1.142   1.142   1.142   1.142   1.142   1.142   1.142   1.142   1.142   1.142   1.142   1.142   1.142   1.142   1.142   1.142   1.142   1.142   1.142   1.142   1.142   1.142   1.142   1.142   1.142   1.142   1.142   1.142   1.142   1.142   1.142   1.142   1.142   1.142   1.142   1.142   1.142   1.142   1.142   1.142   1.142   1.142   1.142   1.142   1.142   1.142   1.142   1.142   1.142   1.142   1.142   1.142   1.142   1.142   1.142   1.142   1.142   1.142   1.142   1.142   1.142   1.142   1.142   1.142   1.142   1.142   1.142   1.142   1.142   1.142   1.142   1.142   1.142   1.142   1.142   1.142   1.142   1.142   1.142   1.142   1.142   1.142   1.142   1.142   1.142   1.142   1.142   1.142   1.142   1.142   1.142   1.142   1.142   1.142   1.142   1.142   1.142   1.142   1.142   1.142   1.142   1.142   1.142   1.142   1.142   1.142   1.142   1.142   1.142   1.142   1.142   1.142   1.142   1.142   1.142   1.142   1.142   1.142   1.142   1.142   1.142   1.142   1.142   1.142   1.142   1.142   1.142   1.142   1.142   1.142   1.142   1.142   1.142   1.142   1.142   1.142   1.142   1.142   1.142   1.142   1.142   1.142   1.142   1.142   1.142   1.142   1.142   1.142   1.142   1.142   1.142   1.142   1.142   1.142   1.142   1.142   1.142   1.142   1.142   1.142   1.142   1.142   1.142   1.142   1.142   1.142

   Mean standard deviation across all grid points:
      u component:    2.310 m/s
      v component:    1.856 m/s
      w component:    1.142 m/s


U-component (X) statistics from the interpolated hub point:

   Mean =  12.1821 m/s
   TI   =  16.0741 %


Processing complete.  79319 CPU seconds used.
