
This summary file was generated by TurbSim (from OpenFAST-v4.1.2) on 11-Feb-2026 at 17:52:55.


Runtime Options:

1302499976  Random seed #1
    RANLUX  Type of random number generator
         F  Output binary HH turbulence parameters?
         F  Output formatted turbulence parameters?
         F  Output AeroDyn HH files?
         T  Output AeroDyn FF files?
         F  Output BLADED FF files?
         F  Output tower data?
         F  Output HAWC FF files?
         T  Output formatted FF files?
         F  Output coherent turbulence time step file?
 0 -  NONE  IEC turbulence models scaled to exact specified standard deviation


Turbine/Model Specifications:

        31  Vertical grid-point matrix dimension
        31  Horizontal grid-point matrix dimension
     0.050  Time step [seconds]
    30.000  Analysis time [seconds]
    30.000  Usable output time [seconds]
    90.000  Hub height [m]
   163.000  Grid height [m]
   163.000  Grid width [m]
     0.000  Vertical flow angle [degrees]
     0.000  Horizontal flow angle [degrees]


Meteorological Boundary Conditions:

    IECKAI  IEC Kaimal spectral model
         1  IEC standard: IEC 61400-1 Ed. 3: 2005
         A  IEC turbulence characteristic
       NTM  IEC Normal Turbulence Model
       N/A  IEC Extreme Turbulence Model (ETM) "c" parameter [m/s]
       PL   Wind profile type
    90.000  Reference height [m]
     7.000  Reference wind speed [m/s]
       N/A  Jet height [m]
     0.200  Power law exponent
     0.030  Surface roughness length [m]


Non-IEC Meteorological Boundary Conditions:

       N/A  Site latitude [degrees]
       N/A  Gradient Richardson number
       N/A  Friction or shear velocity [m/s]
       N/A  Mixing layer depth [m]
       N/A  Mean hub u'w' Reynolds stress
       N/A  Mean hub u'v' Reynolds stress
       N/A  Mean hub v'w' Reynolds stress


Spatial Coherence Models:

       IEC  u-component coherence model
      NONE  v-component coherence model
      NONE  w-component coherence model
(   12.000, 0.353E-03)  u-component coherence parameters
                   N/A  v-component coherence parameters
                   N/A  w-component coherence parameters
       N/A  Coherence exponent


You have requested that the following file(s) be generated:

   Generator/TurbSim2.bts (AeroDyn/TurbSim full-field wind file)
   Generator/TurbSim2.u (formatted full-field U-component file)
   Generator/TurbSim2.v (formatted full-field V-component file)
   Generator/TurbSim2.w (formatted full-field W-component file)


Turbulence Simulation Scaling Parameter Summary:

   Turbulence model used                            =  IEC Kaimal
   Turbulence characteristic                        =  A
   IEC turbulence type                              =  Normal Turbulence Model
   IEC standard                                     =  IEC 61400-1 Ed. 3: 2005
   Mean wind speed at hub height                    =    7.000 m/s
   Expected value of turbulence intensity at 15 m/s =   16.000%
   Characteristic value of standard deviation       =    1.736 m/s
   Turbulence scale                                 =   42.000 m
   u-component integral scale                       =  340.200 m
   Coherency scale                                  =  340.200 m
   Characteristic value of hub turbulence intensity =   24.800%
   Gradient Richardson number                       =    0.000

   Wind profile type                                =  Power law
   Power law exponent                               =    0.200
   Mean shear across rotor disk                     =    0.022 (m/s)/m
   Assumed rotor diameter                           =  163.000 m
   Surface roughness length                         =    0.030 m

   Nyquist frequency of turbulent wind field        =   10.000 Hz

   Number of time steps in the FFT                  =      600
   Number of time steps output                      =      600
   Number of points simulated                       =      961


Mean Flow Angles:

   Vertical   =   0.0 degrees
   Horizontal =   0.0 degrees

Mean Wind Speed Profile:

   Height    Wind Speed   Horizontal Angle  Vertical Angle  U-comp (X)   V-comp (Y)   W-comp (Z)
     (m)        (m/s)         (degrees)       (degrees)       (m/s)        (m/s)        (m/s)   
   ------    ----------   ----------------  --------------  ----------   ----------   ----------
    171.5        7.96            0.00            0.00          7.96         0.00         0.00
    166.1        7.91            0.00            0.00          7.91         0.00         0.00
    160.6        7.86            0.00            0.00          7.86         0.00         0.00
    155.2        7.81            0.00            0.00          7.81         0.00         0.00
    149.8        7.75            0.00            0.00          7.75         0.00         0.00
    144.3        7.69            0.00            0.00          7.69         0.00         0.00
    138.9        7.63            0.00            0.00          7.63         0.00         0.00
    133.5        7.57            0.00            0.00          7.57         0.00         0.00
    128.0        7.51            0.00            0.00          7.51         0.00         0.00
    122.6        7.45            0.00            0.00          7.45         0.00         0.00
    117.2        7.38            0.00            0.00          7.38         0.00         0.00
    111.7        7.31            0.00            0.00          7.31         0.00         0.00
    106.3        7.24            0.00            0.00          7.24         0.00         0.00
    100.9        7.16            0.00            0.00          7.16         0.00         0.00
     95.4        7.08            0.00            0.00          7.08         0.00         0.00
     90.0        7.00            0.00            0.00          7.00         0.00         0.00
     84.6        6.91            0.00            0.00          6.91         0.00         0.00
     79.1        6.82            0.00            0.00          6.82         0.00         0.00
     73.7        6.73            0.00            0.00          6.73         0.00         0.00
     68.3        6.62            0.00            0.00          6.62         0.00         0.00
     62.8        6.51            0.00            0.00          6.51         0.00         0.00
     57.4        6.40            0.00            0.00          6.40         0.00         0.00
     52.0        6.27            0.00            0.00          6.27         0.00         0.00
     46.5        6.13            0.00            0.00          6.13         0.00         0.00
     41.1        5.98            0.00            0.00          5.98         0.00         0.00
     35.7        5.82            0.00            0.00          5.82         0.00         0.00
     30.2        5.63            0.00            0.00          5.63         0.00         0.00
     24.8        5.41            0.00            0.00          5.41         0.00         0.00
     19.4        5.15            0.00            0.00          5.15         0.00         0.00
     13.9        4.82            0.00            0.00          4.82         0.00         0.00
      8.5        4.37            0.00            0.00          4.37         0.00         0.00


Harvested Random Seeds after Generation of the Random Numbers:

      8036263 K 1
            0 K 2


Hub-Height Simulated Turbulence Statistical Summary:

   Type of Wind        Min (m/s)   Mean (m/s)    Max (m/s)  Sigma (m/s)       TI (%)
   ----------------    ---------   ----------    ---------  -----------       ------
   Longitudinal (u)         4.55         7.00         9.62        0.802       11.459
   Lateral (v)             -2.82        -0.00         2.27        0.970       13.858
   Vertical (w)            -2.23         0.00         1.87        0.758       10.835
   U component              4.55         7.00         9.62        0.802       11.459
   V component             -2.82        -0.00         2.27        0.970       13.858
   W component             -2.23         0.00         1.87        0.758       10.835
   Horizontal (U&V)         4.70         7.07         9.72        0.779       11.013
   Total                    4.93         7.11         9.83        0.771       10.848

                       Min Reynolds     Mean Reynolds    Max Reynolds    Correlation
   Product             Stress (m/s)^2   Stress (m/s)^2   Stress (m/s)^2  Coefficient
   ----------------    --------------   --------------   --------------  -----------
   u'w'                     -1.143             0.277             5.441         0.455
   u'v'                     -1.590             0.352             5.782         0.453
   v'w'                     -1.260             0.322             3.535         0.438


   Friction Velocity (Ustar)  =      0.526 m/s
   Maximum Instantaneous TKE  =      6.716 (m/s)^2
   Maximum Instantaneous CTKE =      3.775 (m/s)^2


Grid Point Variance Summary:

   Y-coord  -81.50  -76.07  -70.63  -65.20  -59.77  -54.33  -48.90  -43.47  -38.03  -32.60  -27.17  -21.73  -16.30  -10.87   -5.43    0.00    5.43   10.87   16.30   21.73   27.17   32.60   38.03   43.47   48.90   54.33   59.77   65.20   70.63   76.07   81.50

   Height   Standard deviation at grid points for the u component:
   171.50    0.731   0.686   0.986   0.843   1.039   0.833   1.048   1.206   0.932   1.123   0.990   0.733   0.880   0.792   0.912   0.783   0.904   1.019   0.639   0.877   1.058   0.680   0.580   0.772   0.842   0.732   0.784   0.764   1.140   1.039   1.166
   166.07    0.771   0.727   0.794   1.007   1.064   0.924   0.899   1.108   1.046   1.059   0.908   0.853   1.066   0.982   0.779   0.827   0.863   0.829   0.647   0.801   0.928   0.816   0.679   0.915   0.834   0.795   0.831   0.660   0.910   1.070   0.827
   160.63    0.643   0.721   0.772   0.900   0.966   0.915   0.813   0.947   0.713   0.832   1.020   0.881   1.072   0.878   0.755   0.649   0.675   0.761   0.820   0.720   0.957   1.096   0.660   0.960   0.645   0.833   0.936   0.804   0.668   0.830   0.857
   155.20    0.894   0.803   0.606   0.853   0.731   0.940   0.955   0.897   0.953   0.633   0.671   0.887   1.071   0.852   0.959   0.899   0.654   0.698   0.615   0.714   0.890   0.983   1.130   0.927   0.862   0.651   0.731   0.934   0.721   0.788   0.652
   149.77    0.718   0.640   0.885   0.595   0.920   0.964   0.818   0.753   1.005   0.872   0.872   0.710   0.788   0.896   0.638   0.623   0.631   0.624   0.666   0.790   1.101   1.230   0.885   1.080   0.868   1.057   0.827   0.921   0.697   0.816   0.905
   144.33    1.084   0.979   1.064   1.057   0.788   0.979   0.898   0.930   0.830   0.762   0.772   0.789   0.601   0.988   1.001   0.803   0.766   0.868   0.862   1.176   1.297   0.971   1.234   1.026   1.053   1.102   0.837   0.897   0.659   0.703   0.784
   138.90    0.878   0.963   1.076   1.077   0.910   0.740   0.855   0.820   0.945   0.998   0.966   0.980   0.787   1.129   0.869   0.659   0.644   0.864   0.999   0.944   0.891   0.983   1.108   1.256   0.789   0.797   1.023   0.887   0.794   0.622   0.714
   133.47    0.827   0.922   1.107   0.761   0.703   0.985   0.816   0.849   0.862   0.879   0.884   0.712   0.877   1.184   1.289   0.900   0.698   0.890   1.010   0.861   0.644   0.610   1.046   1.146   0.980   0.923   0.906   0.861   0.773   0.665   0.757
   128.03    0.715   1.037   0.874   1.110   0.987   1.129   0.902   0.971   0.549   0.941   0.813   0.587   0.821   1.100   1.154   0.743   0.668   1.016   1.174   0.910   0.893   1.255   1.374   1.125   0.768   0.756   0.722   0.814   0.700   0.634   0.694
   122.60    0.941   1.155   0.980   1.367   1.118   1.092   0.646   0.865   0.808   0.642   0.816   1.009   1.064   1.015   0.950   0.858   0.735   0.919   1.172   1.033   1.335   1.513   1.065   1.321   0.889   0.671   0.660   0.608   0.678   0.872   0.913
   117.17    1.296   1.466   1.436   1.341   1.293   0.865   1.045   0.877   0.545   0.853   0.959   1.154   1.057   0.876   0.619   0.811   0.597   0.834   1.049   1.428   1.112   1.154   1.340   1.425   1.418   0.996   1.008   0.863   0.716   1.146   0.727
   111.73    1.187   1.340   1.164   1.250   1.275   1.234   0.990   1.221   0.939   0.786   0.940   1.012   1.042   0.975   0.837   0.859   0.924   0.571   0.775   1.241   1.349   1.577   1.212   1.249   1.154   1.340   0.925   1.023   0.998   1.061   1.087
   106.30    1.087   1.010   1.041   1.260   1.301   1.032   1.202   1.185   1.112   0.729   0.893   0.931   0.793   0.910   0.720   0.647   0.658   0.738   0.994   1.177   1.385   1.451   1.451   1.480   1.368   1.233   1.087   1.010   0.848   0.808   0.848
   100.87    0.889   0.910   0.946   1.213   1.193   0.945   1.132   1.054   0.989   1.084   0.865   0.819   0.727   0.675   0.609   0.846   0.687   0.791   0.822   0.734   0.945   1.057   1.290   1.281   0.945   1.102   0.995   1.104   0.941   0.614   1.062
    95.43    0.964   1.070   1.283   1.250   1.283   1.081   0.848   0.796   0.711   0.776   0.896   1.014   0.819   0.635   0.714   0.668   0.754   0.759   0.653   0.750   0.882   0.715   0.882   1.063   1.218   1.173   1.185   0.891   0.789   0.774   0.959
    90.00    1.098   0.865   0.966   1.034   1.106   0.987   1.113   0.695   0.878   1.065   0.769   0.909   0.699   0.768   0.723   0.802   0.679   0.678   0.762   0.778   0.775   0.653   0.829   1.045   1.155   1.058   0.971   1.029   0.768   0.709   0.731
    84.57    0.991   0.826   0.955   0.692   0.906   1.022   1.085   0.760   0.880   0.949   0.737   0.931   1.113   0.857   0.593   0.659   0.635   0.707   0.637   0.791   0.750   0.734   0.925   1.144   0.999   1.071   1.033   0.947   0.899   0.796   0.728
    79.13    0.726   0.998   0.676   0.680   0.772   0.641   0.822   0.937   0.779   0.772   0.814   1.076   1.250   0.929   0.772   0.690   0.930   1.063   0.854   0.752   0.843   1.102   0.676   0.876   1.156   0.797   0.727   0.768   0.824   0.792   0.856
    73.70    0.681   0.734   0.834   0.848   0.796   0.761   0.746   0.684   1.109   0.940   0.749   1.051   1.284   1.231   1.160   1.150   1.311   1.021   0.745   0.894   0.762   0.963   1.028   0.938   1.060   1.003   0.932   0.839   1.070   0.805   0.844
    68.27    0.850   0.769   0.610   0.794   0.845   1.020   0.855   0.698   1.001   1.190   0.910   0.837   1.187   1.205   1.253   1.216   1.240   0.899   1.079   0.880   0.664   0.764   0.840   0.887   1.122   1.137   0.893   0.857   0.764   0.825   0.966
    62.83    0.841   0.948   0.781   0.878   1.029   1.057   1.127   1.059   1.069   1.015   1.256   0.912   0.981   1.067   1.055   0.631   0.970   1.038   0.920   0.662   0.956   0.900   0.888   1.055   1.232   1.180   0.997   0.757   0.776   0.950   0.952
    57.40    0.993   1.075   0.654   1.038   0.870   0.710   0.908   0.921   0.947   0.928   1.061   1.244   0.938   0.720   0.997   0.978   0.793   0.723   0.653   0.815   0.889   1.090   1.023   0.921   1.152   0.761   0.790   0.832   0.859   0.859   0.929
    51.97    0.826   0.879   0.952   1.119   1.114   1.193   1.030   0.753   0.854   0.737   0.786   0.957   1.082   0.754   0.904   0.957   0.669   0.792   0.954   1.231   0.741   1.020   0.905   1.010   1.114   1.183   0.742   0.959   0.983   1.144   0.709
    46.53    0.751   0.676   0.895   0.851   1.019   1.325   1.204   1.241   0.831   0.774   0.800   0.875   0.982   0.693   0.876   0.729   0.929   0.771   1.005   1.037   0.973   1.130   0.912   0.641   0.810   0.860   0.775   0.764   1.074   1.082   0.829
    41.10    0.862   0.871   0.859   0.695   0.770   1.195   1.201   1.125   0.823   0.712   0.779   0.775   0.826   0.626   0.773   0.845   0.864   0.745   0.659   1.007   1.203   1.295   0.981   0.691   0.806   0.695   1.026   1.076   1.097   0.703   0.878
    35.67    1.265   1.221   0.808   0.640   0.665   0.830   0.970   0.902   0.815   0.662   0.696   0.556   0.677   0.725   0.757   0.735   0.705   0.898   0.806   0.856   0.983   0.927   1.030   0.781   0.803   0.955   0.947   1.049   0.758   0.687   0.808
    30.23    1.176   1.204   0.895   0.999   0.836   0.893   0.628   0.713   0.739   0.779   0.595   0.669   0.719   0.665   0.799   0.891   0.769   1.048   0.979   0.748   0.831   0.774   0.708   0.634   0.949   0.937   0.632   0.894   0.619   0.787   0.731
    24.80    0.977   1.246   0.826   1.262   0.886   0.877   0.965   0.714   1.032   0.750   0.603   0.717   0.867   0.751   0.707   0.707   0.783   0.961   0.976   0.664   0.653   0.757   0.799   0.768   0.849   0.664   0.694   0.950   0.925   0.956   0.960
    19.37    0.781   1.025   1.068   1.306   1.061   1.085   0.985   0.963   1.112   0.616   0.992   0.968   0.710   0.804   0.736   0.747   0.765   0.774   0.951   0.752   0.809   0.730   0.666   0.798   0.813   0.787   0.819   0.798   0.797   0.956   0.817
    13.93    1.081   1.180   0.900   1.082   1.091   0.788   0.983   0.914   0.845   0.992   0.917   1.003   0.813   1.087   0.674   0.726   0.737   0.617   0.798   0.744   0.782   0.807   0.847   0.746   0.866   0.934   1.072   1.196   1.172   0.941   0.705
     8.50    0.914   1.009   1.157   1.143   0.910   1.003   1.006   0.984   0.972   0.937   1.056   0.719   0.894   0.880   0.900   0.767   0.752   0.851   0.608   0.718   0.767   0.772   0.880   0.790   0.859   0.954   0.927   1.138   1.294   0.684   0.934

   Height   Standard deviation at grid points for the v component:
   171.50    0.970   0.970   0.970   0.970   0.970   0.970   0.970   0.970   0.970   0.970   0.970   0.970   0.970   0.970   0.970   0.970   0.970   0.970   0.970   0.970   0.970   0.970   0.970   0.970   0.970   0.970   0.970   0.970   0.970   0.970   0.970
   166.07    0.970   0.970   0.970   0.970   0.970   0.970   0.970   0.970   0.970   0.970   0.970   0.970   0.970   0.970   0.970   0.970   0.970   0.970   0.970   0.970   0.970   0.970   0.970   0.970   0.970   0.970   0.970   0.970   0.970   0.970   0.970
   160.63    0.970   0.970   0.970   0.970   0.970   0.970   0.970   0.970   0.970   0.970   0.970   0.970   0.970   0.970   0.970   0.970   0.970   0.970   0.970   0.970   0.970   0.970   0.970   0.970   0.970   0.970   0.970   0.970   0.970   0.970   0.970
   155.20    0.970   0.970   0.970   0.970   0.970   0.970   0.970   0.970   0.970   0.970   0.970   0.970   0.970   0.970   0.970   0.970   0.970   0.970   0.970   0.970   0.970   0.970   0.970   0.970   0.970   0.970   0.970   0.970   0.970   0.970   0.970
   149.77    0.970   0.970   0.970   0.970   0.970   0.970   0.970   0.970   0.970   0.970   0.970   0.970   0.970   0.970   0.970   0.970   0.970   0.970   0.970   0.970   0.970   0.970   0.970   0.970   0.970   0.970   0.970   0.970   0.970   0.970   0.970
   144.33    0.970   0.970   0.970   0.970   0.970   0.970   0.970   0.970   0.970   0.970   0.970   0.970   0.970   0.970   0.970   0.970   0.970   0.970   0.970   0.970   0.970   0.970   0.970   0.970   0.970   0.970   0.970   0.970   0.970   0.970   0.970
   138.90    0.970   0.970   0.970   0.970   0.970   0.970   0.970   0.970   0.970   0.970   0.970   0.970   0.970   0.970   0.970   0.970   0.970   0.970   0.970   0.970   0.970   0.970   0.970   0.970   0.970   0.970   0.970   0.970   0.970   0.970   0.970
   133.47    0.970   0.970   0.970   0.970   0.970   0.970   0.970   0.970   0.970   0.970   0.970   0.970   0.970   0.970   0.970   0.970   0.970   0.970   0.970   0.970   0.970   0.970   0.970   0.970   0.970   0.970   0.970   0.970   0.970   0.970   0.970
   128.03    0.970   0.970   0.970   0.970   0.970   0.970   0.970   0.970   0.970   0.970   0.970   0.970   0.970   0.970   0.970   0.970   0.970   0.970   0.970   0.970   0.970   0.970   0.970   0.970   0.970   0.970   0.970   0.970   0.970   0.970   0.970
   122.60    0.970   0.970   0.970   0.970   0.970   0.970   0.970   0.970   0.970   0.970   0.970   0.970   0.970   0.970   0.970   0.970   0.970   0.970   0.970   0.970   0.970   0.970   0.970   0.970   0.970   0.970   0.970   0.970   0.970   0.970   0.970
   117.17    0.970   0.970   0.970   0.970   0.970   0.970   0.970   0.970   0.970   0.970   0.970   0.970   0.970   0.970   0.970   0.970   0.970   0.970   0.970   0.970   0.970   0.970   0.970   0.970   0.970   0.970   0.970   0.970   0.970   0.970   0.970
   111.73    0.970   0.970   0.970   0.970   0.970   0.970   0.970   0.970   0.970   0.970   0.970   0.970   0.970   0.970   0.970   0.970   0.970   0.970   0.970   0.970   0.970   0.970   0.970   0.970   0.970   0.970   0.970   0.970   0.970   0.970   0.970
   106.30    0.970   0.970   0.970   0.970   0.970   0.970   0.970   0.970   0.970   0.970   0.970   0.970   0.970   0.970   0.970   0.970   0.970   0.970   0.970   0.970   0.970   0.970   0.970   0.970   0.970   0.970   0.970   0.970   0.970   0.970   0.970
   100.87    0.970   0.970   0.970   0.970   0.970   0.970   0.970   0.970   0.970   0.970   0.970   0.970   0.970   0.970   0.970   0.970   0.970   0.970   0.970   0.970   0.970   0.970   0.970   0.970   0.970   0.970   0.970   0.970   0.970   0.970   0.970
    95.43    0.970   0.970   0.970   0.970   0.970   0.970   0.970   0.970   0.970   0.970   0.970   0.970   0.970   0.970   0.970   0.970   0.970   0.970   0.970   0.970   0.970   0.970   0.970   0.970   0.970   0.970   0.970   0.970   0.970   0.970   0.970
    90.00    0.970   0.970   0.970   0.970   0.970   0.970   0.970   0.970   0.970   0.970   0.970   0.970   0.970   0.970   0.970   0.970   0.970   0.970   0.970   0.970   0.970   0.970   0.970   0.970   0.970   0.970   0.970   0.970   0.970   0.970   0.970
    84.57    0.970   0.970   0.970   0.970   0.970   0.970   0.970   0.970   0.970   0.970   0.970   0.970   0.970   0.970   0.970   0.970   0.970   0.970   0.970   0.970   0.970   0.970   0.970   0.970   0.970   0.970   0.970   0.970   0.970   0.970   0.970
    79.13    0.970   0.970   0.970   0.970   0.970   0.970   0.970   0.970   0.970   0.970   0.970   0.970   0.970   0.970   0.970   0.970   0.970   0.970   0.970   0.970   0.970   0.970   0.970   0.970   0.970   0.970   0.970   0.970   0.970   0.970   0.970
    73.70    0.970   0.970   0.970   0.970   0.970   0.970   0.970   0.970   0.970   0.970   0.970   0.970   0.970   0.970   0.970   0.970   0.970   0.970   0.970   0.970   0.970   0.970   0.970   0.970   0.970   0.970   0.970   0.970   0.970   0.970   0.970
    68.27    0.970   0.970   0.970   0.970   0.970   0.970   0.970   0.970   0.970   0.970   0.970   0.970   0.970   0.970   0.970   0.970   0.970   0.970   0.970   0.970   0.970   0.970   0.970   0.970   0.970   0.970   0.970   0.970   0.970   0.970   0.970
    62.83    0.970   0.970   0.970   0.970   0.970   0.970   0.970   0.970   0.970   0.970   0.970   0.970   0.970   0.970   0.970   0.970   0.970   0.970   0.970   0.970   0.970   0.970   0.970   0.970   0.970   0.970   0.970   0.970   0.970   0.970   0.970
    57.40    0.970   0.970   0.970   0.970   0.970   0.970   0.970   0.970   0.970   0.970   0.970   0.970   0.970   0.970   0.970   0.970   0.970   0.970   0.970   0.970   0.970   0.970   0.970   0.970   0.970   0.970   0.970   0.970   0.970   0.970   0.970
    51.97    0.970   0.970   0.970   0.970   0.970   0.970   0.970   0.970   0.970   0.970   0.970   0.970   0.970   0.970   0.970   0.970   0.970   0.970   0.970   0.970   0.970   0.970   0.970   0.970   0.970   0.970   0.970   0.970   0.970   0.970   0.970
    46.53    0.970   0.970   0.970   0.970   0.970   0.970   0.970   0.970   0.970   0.970   0.970   0.970   0.970   0.970   0.970   0.970   0.970   0.970   0.970   0.970   0.970   0.970   0.970   0.970   0.970   0.970   0.970   0.970   0.970   0.970   0.970
    41.10    0.970   0.970   0.970   0.970   0.970   0.970   0.970   0.970   0.970   0.970   0.970   0.970   0.970   0.970   0.970   0.970   0.970   0.970   0.970   0.970   0.970   0.970   0.970   0.970   0.970   0.970   0.970   0.970   0.970   0.970   0.970
    35.67    0.970   0.970   0.970   0.970   0.970   0.970   0.970   0.970   0.970   0.970   0.970   0.970   0.970   0.970   0.970   0.970   0.970   0.970   0.970   0.970   0.970   0.970   0.970   0.970   0.970   0.970   0.970   0.970   0.970   0.970   0.970
    30.23    0.970   0.970   0.970   0.970   0.970   0.970   0.970   0.970   0.970   0.970   0.970   0.970   0.970   0.970   0.970   0.970   0.970   0.970   0.970   0.970   0.970   0.970   0.970   0.970   0.970   0.970   0.970   0.970   0.970   0.970   0.970
    24.80    0.970   0.970   0.970   0.970   0.970   0.970   0.970   0.970   0.970   0.970   0.970   0.970   0.970   0.970   0.970   0.970   0.970   0.970   0.970   0.970   0.970   0.970   0.970   0.970   0.970   0.970   0.970   0.970   0.970   0.970   0.970
    19.37    0.970   0.970   0.970   0.970   0.970   0.970   0.970   0.970   0.970   0.970   0.970   0.970   0.970   0.970   0.970   0.970   0.970   0.970   0.970   0.970   0.970   0.970   0.970   0.970   0.970   0.970   0.970   0.970   0.970   0.970   0.970
    13.93    0.970   0.970   0.970   0.970   0.970   0.970   0.970   0.970   0.970   0.970   0.970   0.970   0.970   0.970   0.970   0.970   0.970   0.970   0.970   0.970   0.970   0.970   0.970   0.970   0.970   0.970   0.970   0.970   0.970   0.970   0.970
     8.50    0.970   0.970   0.970   0.970   0.970   0.970   0.970   0.970   0.970   0.970   0.970   0.970   0.970   0.970   0.970   0.970   0.970   0.970   0.970   0.970   0.970   0.970   0.970   0.970   0.970   0.970   0.970   0.970   0.970   0.970   0.970

   Height   Standard deviation at grid points for the w component:
   171.50    0.758   0.758   0.758   0.758   0.758   0.758   0.758   0.758   0.758   0.758   0.758   0.758   0.758   0.758   0.758   0.758   0.758   0.758   0.758   0.758   0.758   0.758   0.758   0.758   0.758   0.758   0.758   0.758   0.758   0.758   0.758
   166.07    0.758   0.758   0.758   0.758   0.758   0.758   0.758   0.758   0.758   0.758   0.758   0.758   0.758   0.758   0.758   0.758   0.758   0.758   0.758   0.758   0.758   0.758   0.758   0.758   0.758   0.758   0.758   0.758   0.758   0.758   0.758
   160.63    0.758   0.758   0.758   0.758   0.758   0.758   0.758   0.758   0.758   0.758   0.758   0.758   0.758   0.758   0.758   0.758   0.758   0.758   0.758   0.758   0.758   0.758   0.758   0.758   0.758   0.758   0.758   0.758   0.758   0.758   0.758
   155.20    0.758   0.758   0.758   0.758   0.758   0.758   0.758   0.758   0.758   0.758   0.758   0.758   0.758   0.758   0.758   0.758   0.758   0.758   0.758   0.758   0.758   0.758   0.758   0.758   0.758   0.758   0.758   0.758   0.758   0.758   0.758
   149.77    0.758   0.758   0.758   0.758   0.758   0.758   0.758   0.758   0.758   0.758   0.758   0.758   0.758   0.758   0.758   0.758   0.758   0.758   0.758   0.758   0.758   0.758   0.758   0.758   0.758   0.758   0.758   0.758   0.758   0.758   0.758
   144.33    0.758   0.758   0.758   0.758   0.758   0.758   0.758   0.758   0.758   0.758   0.758   0.758   0.758   0.758   0.758   0.758   0.758   0.758   0.758   0.758   0.758   0.758   0.758   0.758   0.758   0.758   0.758   0.758   0.758   0.758   0.758
   138.90    0.758   0.758   0.758   0.758   0.758   0.758   0.758   0.758   0.758   0.758   0.758   0.758   0.758   0.758   0.758   0.758   0.758   0.758   0.758   0.758   0.758   0.758   0.758   0.758   0.758   0.758   0.758   0.758   0.758   0.758   0.758
   133.47    0.758   0.758   0.758   0.758   0.758   0.758   0.758   0.758   0.758   0.758   0.758   0.758   0.758   0.758   0.758   0.758   0.758   0.758   0.758   0.758   0.758   0.758   0.758   0.758   0.758   0.758   0.758   0.758   0.758   0.758   0.758
   128.03    0.758   0.758   0.758   0.758   0.758   0.758   0.758   0.758   0.758   0.758   0.758   0.758   0.758   0.758   0.758   0.758   0.758   0.758   0.758   0.758   0.758   0.758   0.758   0.758   0.758   0.758   0.758   0.758   0.758   0.758   0.758
   122.60    0.758   0.758   0.758   0.758   0.758   0.758   0.758   0.758   0.758   0.758   0.758   0.758   0.758   0.758   0.758   0.758   0.758   0.758   0.758   0.758   0.758   0.758   0.758   0.758   0.758   0.758   0.758   0.758   0.758   0.758   0.758
   117.17    0.758   0.758   0.758   0.758   0.758   0.758   0.758   0.758   0.758   0.758   0.758   0.758   0.758   0.758   0.758   0.758   0.758   0.758   0.758   0.758   0.758   0.758   0.758   0.758   0.758   0.758   0.758   0.758   0.758   0.758   0.758
   111.73    0.758   0.758   0.758   0.758   0.758   0.758   0.758   0.758   0.758   0.758   0.758   0.758   0.758   0.758   0.758   0.758   0.758   0.758   0.758   0.758   0.758   0.758   0.758   0.758   0.758   0.758   0.758   0.758   0.758   0.758   0.758
   106.30    0.758   0.758   0.758   0.758   0.758   0.758   0.758   0.758   0.758   0.758   0.758   0.758   0.758   0.758   0.758   0.758   0.758   0.758   0.758   0.758   0.758   0.758   0.758   0.758   0.758   0.758   0.758   0.758   0.758   0.758   0.758
   100.87    0.758   0.758   0.758   0.758   0.758   0.758   0.758   0.758   0.758   0.758   0.758   0.758   0.758   0.758   0.758   0.758   0.758   0.758   0.758   0.758   0.758   0.758   0.758   0.758   0.758   0.758   0.758   0.758   0.758   0.758   0.758
    95.43    0.758   0.758   0.758   0.758   0.758   0.758   0.758   0.758   0.758   0.758   0.758   0.758   0.758   0.758   0.758   0.758   0.758   0.758   0.758   0.758   0.758   0.758   0.758   0.758   0.758   0.758   0.758   0.758   0.758   0.758   0.758
    90.00    0.758   0.758   0.758   0.758   0.758   0.758   0.758   0.758   0.758   0.758   0.758   0.758   0.758   0.758   0.758   0.758   0.758   0.758   0.758   0.758   0.758   0.758   0.758   0.758   0.758   0.758   0.758   0.758   0.758   0.758   0.758
    84.57    0.758   0.758   0.758   0.758   0.758   0.758   0.758   0.758   0.758   0.758   0.758   0.758   0.758   0.758   0.758   0.758   0.758   0.758   0.758   0.758   0.758   0.758   0.758   0.758   0.758   0.758   0.758   0.758   0.758   0.758   0.758
    79.13    0.758   0.758   0.758   0.758   0.758   0.758   0.758   0.758   0.758   0.758   0.758   0.758   0.758   0.758   0.758   0.758   0.758   0.758   0.758   0.758   0.758   0.758   0.758   0.758   0.758   0.758   0.758   0.758   0.758   0.758   0.758
    73.70    0.758   0.758   0.758   0.758   0.758   0.758   0.758   0.758   0.758   0.758   0.758   0.758   0.758   0.758   0.758   0.758   0.758   0.758   0.758   0.758   0.758   0.758   0.758   0.758   0.758   0.758   0.758   0.758   0.758   0.758   0.758
    68.27    0.758   0.758   0.758   0.758   0.758   0.758   0.758   0.758   0.758   0.758   0.758   0.758   0.758   0.758   0.758   0.758   0.758   0.758   0.758   0.758   0.758   0.758   0.758   0.758   0.758   0.758   0.758   0.758   0.758   0.758   0.758
    62.83    0.758   0.758   0.758   0.758   0.758   0.758   0.758   0.758   0.758   0.758   0.758   0.758   0.758   0.758   0.758   0.758   0.758   0.758   0.758   0.758   0.758   0.758   0.758   0.758   0.758   0.758   0.758   0.758   0.758   0.758   0.758
    57.40    0.758   0.758   0.758   0.758   0.758   0.758   0.758   0.758   0.758   0.758   0.758   0.758   0.758   0.758   0.758   0.758   0.758   0.758   0.758   0.758   0.758   0.758   0.758   0.758   0.758   0.758   0.758   0.758   0.758   0.758   0.758
    51.97    0.758   0.758   0.758   0.758   0.758   0.758   0.758   0.758   0.758   0.758   0.758   0.758   0.758   0.758   0.758   0.758   0.758   0.758   0.758   0.758   0.758   0.758   0.758   0.758   0.758   0.758   0.758   0.758   0.758   0.758   0.758
    46.53    0.758   0.758   0.758   0.758   0.758   0.758   0.758   0.758   0.758   0.758   0.758   0.758   0.758   0.758   0.758   0.758   0.758   0.758   0.758   0.758   0.758   0.758   0.758   0.758   0.758   0.758   0.758   0.758   0.758   0.758   0.758
    41.10    0.758   0.758   0.758   0.758   0.758   0.758   0.758   0.758   0.758   0.758   0.758   0.758   0.758   0.758   0.758   0.758   0.758   0.758   0.758   0.758   0.758   0.758   0.758   0.758   0.758   0.758   0.758   0.758   0.758   0.758   0.758
    35.67    0.758   0.758   0.758   0.758   0.758   0.758   0.758   0.758   0.758   0.758   0.758   0.758   0.758   0.758   0.758   0.758   0.758   0.758   0.758   0.758   0.758   0.758   0.758   0.758   0.758   0.758   0.758   0.758   0.758   0.758   0.758
    30.23    0.758   0.758   0.758   0.758   0.758   0.758   0.758   0.758   0.758   0.758   0.758   0.758   0.758   0.758   0.758   0.758   0.758   0.758   0.758   0.758   0.758   0.758   0.758   0.758   0.758   0.758   0.758   0.758   0.758   0.758   0.758
    24.80    0.758   0.758   0.758   0.758   0.758   0.758   0.758   0.758   0.758   0.758   0.758   0.758   0.758   0.758   0.758   0.758   0.758   0.758   0.758   0.758   0.758   0.758   0.758   0.758   0.758   0.758   0.758   0.758   0.758   0.758   0.758
    19.37    0.758   0.758   0.758   0.758   0.758   0.758   0.758   0.758   0.758   0.758   0.758   0.758   0.758   0.758   0.758   0.758   0.758   0.758   0.758   0.758   0.758   0.758   0.758   0.758   0.758   0.758   0.758   0.758   0.758   0.758   0.758
    13.93    0.758   0.758   0.758   0.758   0.758   0.758   0.758   0.758   0.758   0.758   0.758   0.758   0.758   0.758   0.758   0.758   0.758   0.758   0.758   0.758   0.758   0.758   0.758   0.758   0.758   0.758   0.758   0.758   0.758   0.758   0.758
     8.50    0.758   0.758   0.758   0.758   0.758   0.758   0.758   0.758   0.758   0.758   0.758   0.758   0.758   0.758   0.758   0.758   0.758   0.758   0.758   0.758   0.758   0.758   0.758   0.758   0.758   0.758   0.758   0.758   0.758   0.758   0.758

   Mean standard deviation across all grid points:
      u component:    0.906 m/s
      v component:    0.970 m/s
      w component:    0.758 m/s


U-component (X) statistics from the interpolated hub point:

   Mean =   7.0000 m/s
   TI   =  11.4589 %


Processing complete.  2.0156 CPU seconds used.
