
This summary file was generated by TurbSim (from OpenFAST-v4.1.2) on 11-Feb-2026 at 17:52:57.


Runtime Options:

**********  Random seed #1
    RANLUX  Type of random number generator
         F  Output binary HH turbulence parameters?
         F  Output formatted turbulence parameters?
         F  Output AeroDyn HH files?
         T  Output AeroDyn FF files?
         F  Output BLADED FF files?
         F  Output tower data?
         F  Output HAWC FF files?
         T  Output formatted FF files?
         F  Output coherent turbulence time step file?
 0 -  NONE  IEC turbulence models scaled to exact specified standard deviation


Turbine/Model Specifications:

        31  Vertical grid-point matrix dimension
        31  Horizontal grid-point matrix dimension
     0.050  Time step [seconds]
    30.000  Analysis time [seconds]
    30.000  Usable output time [seconds]
    90.000  Hub height [m]
   163.000  Grid height [m]
   163.000  Grid width [m]
     0.000  Vertical flow angle [degrees]
     0.000  Horizontal flow angle [degrees]


Meteorological Boundary Conditions:

    IECKAI  IEC Kaimal spectral model
         1  IEC standard: IEC 61400-1 Ed. 3: 2005
         A  IEC turbulence characteristic
       NTM  IEC Normal Turbulence Model
       N/A  IEC Extreme Turbulence Model (ETM) "c" parameter [m/s]
       PL   Wind profile type
    90.000  Reference height [m]
     7.000  Reference wind speed [m/s]
       N/A  Jet height [m]
     0.200  Power law exponent
     0.030  Surface roughness length [m]


Non-IEC Meteorological Boundary Conditions:

       N/A  Site latitude [degrees]
       N/A  Gradient Richardson number
       N/A  Friction or shear velocity [m/s]
       N/A  Mixing layer depth [m]
       N/A  Mean hub u'w' Reynolds stress
       N/A  Mean hub u'v' Reynolds stress
       N/A  Mean hub v'w' Reynolds stress


Spatial Coherence Models:

       IEC  u-component coherence model
      NONE  v-component coherence model
      NONE  w-component coherence model
(   12.000, 0.353E-03)  u-component coherence parameters
                   N/A  v-component coherence parameters
                   N/A  w-component coherence parameters
       N/A  Coherence exponent


You have requested that the following file(s) be generated:

   Generator/TurbSim3.bts (AeroDyn/TurbSim full-field wind file)
   Generator/TurbSim3.u (formatted full-field U-component file)
   Generator/TurbSim3.v (formatted full-field V-component file)
   Generator/TurbSim3.w (formatted full-field W-component file)


Turbulence Simulation Scaling Parameter Summary:

   Turbulence model used                            =  IEC Kaimal
   Turbulence characteristic                        =  A
   IEC turbulence type                              =  Normal Turbulence Model
   IEC standard                                     =  IEC 61400-1 Ed. 3: 2005
   Mean wind speed at hub height                    =    7.000 m/s
   Expected value of turbulence intensity at 15 m/s =   16.000%
   Characteristic value of standard deviation       =    1.736 m/s
   Turbulence scale                                 =   42.000 m
   u-component integral scale                       =  340.200 m
   Coherency scale                                  =  340.200 m
   Characteristic value of hub turbulence intensity =   24.800%
   Gradient Richardson number                       =    0.000

   Wind profile type                                =  Power law
   Power law exponent                               =    0.200
   Mean shear across rotor disk                     =    0.022 (m/s)/m
   Assumed rotor diameter                           =  163.000 m
   Surface roughness length                         =    0.030 m

   Nyquist frequency of turbulent wind field        =   10.000 Hz

   Number of time steps in the FFT                  =      600
   Number of time steps output                      =      600
   Number of points simulated                       =      961


Mean Flow Angles:

   Vertical   =   0.0 degrees
   Horizontal =   0.0 degrees

Mean Wind Speed Profile:

   Height    Wind Speed   Horizontal Angle  Vertical Angle  U-comp (X)   V-comp (Y)   W-comp (Z)
     (m)        (m/s)         (degrees)       (degrees)       (m/s)        (m/s)        (m/s)   
   ------    ----------   ----------------  --------------  ----------   ----------   ----------
    171.5        7.96            0.00            0.00          7.96         0.00         0.00
    166.1        7.91            0.00            0.00          7.91         0.00         0.00
    160.6        7.86            0.00            0.00          7.86         0.00         0.00
    155.2        7.81            0.00            0.00          7.81         0.00         0.00
    149.8        7.75            0.00            0.00          7.75         0.00         0.00
    144.3        7.69            0.00            0.00          7.69         0.00         0.00
    138.9        7.63            0.00            0.00          7.63         0.00         0.00
    133.5        7.57            0.00            0.00          7.57         0.00         0.00
    128.0        7.51            0.00            0.00          7.51         0.00         0.00
    122.6        7.45            0.00            0.00          7.45         0.00         0.00
    117.2        7.38            0.00            0.00          7.38         0.00         0.00
    111.7        7.31            0.00            0.00          7.31         0.00         0.00
    106.3        7.24            0.00            0.00          7.24         0.00         0.00
    100.9        7.16            0.00            0.00          7.16         0.00         0.00
     95.4        7.08            0.00            0.00          7.08         0.00         0.00
     90.0        7.00            0.00            0.00          7.00         0.00         0.00
     84.6        6.91            0.00            0.00          6.91         0.00         0.00
     79.1        6.82            0.00            0.00          6.82         0.00         0.00
     73.7        6.73            0.00            0.00          6.73         0.00         0.00
     68.3        6.62            0.00            0.00          6.62         0.00         0.00
     62.8        6.51            0.00            0.00          6.51         0.00         0.00
     57.4        6.40            0.00            0.00          6.40         0.00         0.00
     52.0        6.27            0.00            0.00          6.27         0.00         0.00
     46.5        6.13            0.00            0.00          6.13         0.00         0.00
     41.1        5.98            0.00            0.00          5.98         0.00         0.00
     35.7        5.82            0.00            0.00          5.82         0.00         0.00
     30.2        5.63            0.00            0.00          5.63         0.00         0.00
     24.8        5.41            0.00            0.00          5.41         0.00         0.00
     19.4        5.15            0.00            0.00          5.15         0.00         0.00
     13.9        4.82            0.00            0.00          4.82         0.00         0.00
      8.5        4.37            0.00            0.00          4.37         0.00         0.00


Harvested Random Seeds after Generation of the Random Numbers:

      8036263 K 1
            0 K 2


Hub-Height Simulated Turbulence Statistical Summary:

   Type of Wind        Min (m/s)   Mean (m/s)    Max (m/s)  Sigma (m/s)       TI (%)
   ----------------    ---------   ----------    ---------  -----------       ------
   Longitudinal (u)         3.45         7.00         9.24        1.466       20.949
   Lateral (v)             -2.82         0.00         1.89        0.970       13.858
   Vertical (w)            -2.42        -0.00         2.45        0.758       10.835
   U component              3.45         7.00         9.24        1.466       20.949
   V component             -2.82         0.00         1.89        0.970       13.858
   W component             -2.42        -0.00         2.45        0.758       10.835
   Horizontal (U&V)         3.75         7.08         9.26        1.379       19.459
   Total                    3.76         7.12         9.26        1.387       19.473

                       Min Reynolds     Mean Reynolds    Max Reynolds    Correlation
   Product             Stress (m/s)^2   Stress (m/s)^2   Stress (m/s)^2  Coefficient
   ----------------    --------------   --------------   --------------  -----------
   u'w'                     -2.874            -0.064             3.318        -0.057
   u'v'                     -3.633             0.816             7.546         0.573
   v'w'                     -2.532            -0.021             2.945        -0.029


   Friction Velocity (Ustar)  =      0.253 m/s
   Maximum Instantaneous TKE  =      8.137 (m/s)^2
   Maximum Instantaneous CTKE =      3.848 (m/s)^2


Grid Point Variance Summary:

   Y-coord  -81.50  -76.07  -70.63  -65.20  -59.77  -54.33  -48.90  -43.47  -38.03  -32.60  -27.17  -21.73  -16.30  -10.87   -5.43    0.00    5.43   10.87   16.30   21.73   27.17   32.60   38.03   43.47   48.90   54.33   59.77   65.20   70.63   76.07   81.50

   Height   Standard deviation at grid points for the u component:
   171.50    0.932   0.926   1.053   1.220   1.137   1.446   1.039   1.120   0.893   0.781   0.879   0.972   0.882   0.876   0.863   0.812   0.838   0.830   0.565   0.752   0.909   1.030   0.710   0.943   1.181   1.288   1.210   1.056   1.325   0.712   0.868
   166.07    1.100   1.011   0.969   0.846   1.047   1.317   1.462   0.991   1.113   1.084   0.778   0.806   1.332   1.494   1.150   1.233   0.688   0.716   0.708   0.707   0.938   0.839   0.724   0.845   0.807   1.224   1.331   1.463   1.403   0.875   0.968
   160.63    1.067   0.781   1.010   0.747   0.867   1.277   1.071   1.359   1.256   0.902   1.036   1.205   1.529   1.268   0.943   1.118   0.953   0.770   0.767   0.903   0.796   0.792   0.726   0.676   0.799   1.057   1.332   1.160   1.156   0.862   0.847
   155.20    0.972   0.731   1.055   1.129   1.155   1.238   1.662   1.420   1.488   0.947   0.945   1.234   1.420   1.343   1.240   1.319   0.959   1.126   0.651   0.795   0.770   0.730   0.822   1.034   1.248   0.931   1.026   1.083   0.918   1.264   0.791
   149.77    0.723   1.020   0.853   1.075   1.486   1.482   1.597   1.682   1.495   0.907   0.605   1.036   1.146   1.269   0.853   1.169   0.902   1.020   0.811   0.745   0.843   0.972   1.093   1.055   1.153   0.681   0.685   1.205   1.274   1.218   0.906
   144.33    0.920   1.248   0.759   1.290   1.190   1.348   1.451   1.515   1.368   0.650   0.827   1.094   1.254   0.965   1.157   1.109   0.978   1.101   0.689   0.731   0.736   0.977   1.251   1.302   1.159   0.720   1.097   1.058   1.242   0.958   1.134
   138.90    0.823   0.960   1.078   1.176   1.332   1.117   1.042   1.158   1.100   0.838   0.779   0.927   1.062   0.840   1.014   1.130   1.202   0.895   0.828   0.881   1.365   0.985   1.252   1.287   0.809   0.857   0.902   1.031   1.070   0.865   0.895
   133.47    0.878   0.742   0.815   0.924   1.223   1.397   0.694   1.002   0.818   0.854   0.641   0.814   0.708   0.765   1.110   1.055   1.178   0.969   1.333   1.560   1.272   1.361   1.276   1.157   0.886   1.046   0.664   0.932   0.748   0.675   0.571
   128.03    0.813   1.050   1.050   1.015   1.307   1.264   0.814   0.835   0.787   0.955   0.979   0.682   0.834   1.032   1.024   1.245   1.309   1.219   1.296   1.562   1.384   1.643   1.094   1.114   1.052   1.236   0.592   0.800   0.851   0.746   0.946
   122.60    0.966   1.107   0.734   0.766   1.158   1.309   0.863   0.690   0.885   0.834   0.824   0.790   0.763   0.738   0.951   0.645   1.083   1.327   1.450   1.346   1.457   1.520   1.365   1.446   1.204   1.077   0.926   0.756   0.873   0.707   0.785
   117.17    0.779   0.872   1.161   1.122   1.268   1.002   1.111   1.061   0.832   0.820   0.594   0.606   0.688   0.761   0.911   0.644   0.833   0.942   1.015   1.068   1.178   1.232   1.148   1.218   1.095   0.572   0.786   0.781   0.822   0.723   0.605
   111.73    0.970   0.893   0.997   1.108   1.031   1.249   1.149   0.777   1.088   0.679   0.776   0.746   0.766   0.864   0.749   0.894   0.845   0.820   0.614   0.749   0.742   0.757   1.044   1.066   0.724   0.706   0.721   0.673   0.827   0.725   0.797
   106.30    0.754   1.073   1.056   1.015   0.931   0.898   1.001   1.069   0.976   0.938   0.554   0.749   0.619   0.720   0.763   0.810   1.129   0.867   0.832   0.858   0.811   0.785   1.003   0.940   0.891   0.880   0.625   0.602   0.756   0.875   1.109
   100.87    0.841   0.905   1.130   0.849   0.944   1.114   0.790   0.813   0.779   0.682   0.736   0.735   0.736   0.755   0.916   0.880   1.198   1.318   1.240   0.672   0.647   0.771   0.755   0.907   0.809   0.750   0.858   0.835   1.071   0.898   1.100
    95.43    1.227   0.969   0.929   0.797   0.939   0.770   0.964   0.896   0.753   0.686   0.696   0.695   1.171   1.229   1.208   1.388   1.219   1.230   0.763   0.936   0.766   0.659   0.921   0.990   0.744   0.935   0.986   0.551   0.861   0.893   1.075
    90.00    1.058   1.147   1.260   1.180   0.841   0.613   0.749   1.104   1.125   0.755   0.766   0.855   1.188   1.381   1.487   1.466   1.293   1.307   0.901   1.153   0.883   0.733   0.704   0.705   0.850   0.764   0.908   0.775   0.718   0.809   1.125
    84.57    0.795   0.921   1.009   0.861   0.970   0.738   0.797   1.138   1.513   0.948   0.869   0.797   0.950   1.038   1.353   1.562   1.108   0.908   0.919   1.201   1.305   0.802   0.608   0.674   0.831   0.891   0.882   0.641   0.932   0.629   1.035
    79.13    0.946   0.814   1.177   1.053   1.325   0.775   1.195   1.319   1.355   1.434   1.062   0.926   1.036   0.737   1.107   1.441   1.370   1.272   0.884   1.035   1.166   0.668   0.693   0.746   0.885   0.738   0.741   0.697   0.855   1.005   1.040
    73.70    1.163   0.958   1.012   1.100   1.258   0.817   1.012   1.214   1.321   1.206   1.163   1.018   1.084   0.831   1.103   1.371   1.260   1.328   0.977   0.962   1.211   0.684   0.755   0.687   0.753   0.768   0.684   0.599   0.814   1.077   0.933
    68.27    0.874   1.102   0.808   0.777   0.946   0.860   1.207   1.402   1.296   0.879   0.890   1.066   1.278   0.969   1.306   1.315   1.087   1.133   1.027   1.176   1.331   0.886   0.631   0.583   0.821   0.650   0.777   0.830   0.913   1.005   0.833
    62.83    0.859   0.801   0.955   1.084   0.767   1.064   1.157   1.396   1.085   1.226   1.119   1.101   1.209   1.255   1.280   1.054   0.880   0.829   0.771   0.878   1.197   0.926   0.922   0.764   0.837   0.806   0.847   0.721   1.215   1.207   0.937
    57.40    0.775   0.593   0.830   0.970   0.877   1.115   1.209   1.090   1.293   1.339   0.696   0.798   0.691   0.892   0.890   0.928   0.632   0.793   0.666   1.200   1.373   1.221   1.070   0.616   0.695   0.685   0.742   0.826   1.204   1.410   1.102
    51.97    1.109   1.004   0.672   0.973   1.215   0.994   1.238   1.170   1.308   1.284   0.994   0.723   0.677   0.749   0.738   0.883   0.684   1.066   1.275   1.240   1.243   0.885   0.761   0.663   0.768   0.721   0.842   0.968   1.032   1.045   1.094
    46.53    0.967   0.944   0.669   0.900   1.183   1.051   1.174   0.897   1.068   0.849   0.793   0.929   0.985   0.855   0.833   1.002   0.931   1.174   1.375   1.068   0.788   0.848   0.880   0.977   0.784   0.966   1.050   0.732   0.902   0.955   1.148
    41.10    0.765   0.898   0.953   1.070   1.058   0.704   0.938   0.755   0.890   0.938   0.655   0.721   0.777   0.840   1.136   1.147   1.050   1.079   1.167   1.072   0.852   0.743   1.281   1.107   0.853   1.017   0.703   0.689   0.600   0.755   0.836
    35.67    0.659   0.548   0.946   1.099   1.046   0.839   0.683   0.892   0.952   1.039   0.654   0.703   0.718   0.883   1.058   1.095   0.647   0.976   0.863   0.897   0.924   1.016   1.299   1.399   1.113   0.877   0.803   0.638   0.815   0.675   0.934
    30.23    0.815   1.119   1.212   0.952   0.599   0.960   1.235   1.397   1.341   1.344   0.847   0.879   0.840   0.578   0.905   1.091   1.014   1.187   0.738   0.640   0.786   0.890   0.992   1.222   0.846   1.017   1.089   0.871   0.763   0.752   0.848
    24.80    0.868   0.846   1.029   0.869   0.842   1.092   0.915   1.165   1.130   1.096   0.711   0.634   0.713   0.866   0.986   0.941   0.863   0.935   0.780   0.883   0.939   0.923   0.875   1.095   1.114   1.088   1.007   0.833   1.043   0.776   0.833
    19.37    1.257   1.037   0.925   0.969   0.917   0.977   1.050   1.061   1.166   0.988   0.839   0.996   0.993   0.996   0.761   0.675   0.806   0.972   1.162   0.758   0.903   1.032   0.785   0.949   0.919   0.870   0.856   0.745   0.855   0.782   0.984
    13.93    1.108   1.216   0.978   1.148   1.088   0.805   0.981   0.626   0.938   0.810   0.671   0.728   0.738   0.874   1.055   0.778   0.928   1.116   1.137   0.819   0.613   0.886   0.926   1.016   1.023   0.848   0.628   0.793   0.926   0.928   0.972
     8.50    0.914   1.125   0.618   0.829   1.047   0.884   0.975   0.835   0.964   0.923   0.752   0.648   0.739   0.987   0.826   1.015   0.904   1.144   1.265   1.353   1.160   0.971   1.107   1.195   0.910   1.121   0.749   0.868   0.702   0.908   0.720

   Height   Standard deviation at grid points for the v component:
   171.50    0.970   0.970   0.970   0.970   0.970   0.970   0.970   0.970   0.970   0.970   0.970   0.970   0.970   0.970   0.970   0.970   0.970   0.970   0.970   0.970   0.970   0.970   0.970   0.970   0.970   0.970   0.970   0.970   0.970   0.970   0.970
   166.07    0.970   0.970   0.970   0.970   0.970   0.970   0.970   0.970   0.970   0.970   0.970   0.970   0.970   0.970   0.970   0.970   0.970   0.970   0.970   0.970   0.970   0.970   0.970   0.970   0.970   0.970   0.970   0.970   0.970   0.970   0.970
   160.63    0.970   0.970   0.970   0.970   0.970   0.970   0.970   0.970   0.970   0.970   0.970   0.970   0.970   0.970   0.970   0.970   0.970   0.970   0.970   0.970   0.970   0.970   0.970   0.970   0.970   0.970   0.970   0.970   0.970   0.970   0.970
   155.20    0.970   0.970   0.970   0.970   0.970   0.970   0.970   0.970   0.970   0.970   0.970   0.970   0.970   0.970   0.970   0.970   0.970   0.970   0.970   0.970   0.970   0.970   0.970   0.970   0.970   0.970   0.970   0.970   0.970   0.970   0.970
   149.77    0.970   0.970   0.970   0.970   0.970   0.970   0.970   0.970   0.970   0.970   0.970   0.970   0.970   0.970   0.970   0.970   0.970   0.970   0.970   0.970   0.970   0.970   0.970   0.970   0.970   0.970   0.970   0.970   0.970   0.970   0.970
   144.33    0.970   0.970   0.970   0.970   0.970   0.970   0.970   0.970   0.970   0.970   0.970   0.970   0.970   0.970   0.970   0.970   0.970   0.970   0.970   0.970   0.970   0.970   0.970   0.970   0.970   0.970   0.970   0.970   0.970   0.970   0.970
   138.90    0.970   0.970   0.970   0.970   0.970   0.970   0.970   0.970   0.970   0.970   0.970   0.970   0.970   0.970   0.970   0.970   0.970   0.970   0.970   0.970   0.970   0.970   0.970   0.970   0.970   0.970   0.970   0.970   0.970   0.970   0.970
   133.47    0.970   0.970   0.970   0.970   0.970   0.970   0.970   0.970   0.970   0.970   0.970   0.970   0.970   0.970   0.970   0.970   0.970   0.970   0.970   0.970   0.970   0.970   0.970   0.970   0.970   0.970   0.970   0.970   0.970   0.970   0.970
   128.03    0.970   0.970   0.970   0.970   0.970   0.970   0.970   0.970   0.970   0.970   0.970   0.970   0.970   0.970   0.970   0.970   0.970   0.970   0.970   0.970   0.970   0.970   0.970   0.970   0.970   0.970   0.970   0.970   0.970   0.970   0.970
   122.60    0.970   0.970   0.970   0.970   0.970   0.970   0.970   0.970   0.970   0.970   0.970   0.970   0.970   0.970   0.970   0.970   0.970   0.970   0.970   0.970   0.970   0.970   0.970   0.970   0.970   0.970   0.970   0.970   0.970   0.970   0.970
   117.17    0.970   0.970   0.970   0.970   0.970   0.970   0.970   0.970   0.970   0.970   0.970   0.970   0.970   0.970   0.970   0.970   0.970   0.970   0.970   0.970   0.970   0.970   0.970   0.970   0.970   0.970   0.970   0.970   0.970   0.970   0.970
   111.73    0.970   0.970   0.970   0.970   0.970   0.970   0.970   0.970   0.970   0.970   0.970   0.970   0.970   0.970   0.970   0.970   0.970   0.970   0.970   0.970   0.970   0.970   0.970   0.970   0.970   0.970   0.970   0.970   0.970   0.970   0.970
   106.30    0.970   0.970   0.970   0.970   0.970   0.970   0.970   0.970   0.970   0.970   0.970   0.970   0.970   0.970   0.970   0.970   0.970   0.970   0.970   0.970   0.970   0.970   0.970   0.970   0.970   0.970   0.970   0.970   0.970   0.970   0.970
   100.87    0.970   0.970   0.970   0.970   0.970   0.970   0.970   0.970   0.970   0.970   0.970   0.970   0.970   0.970   0.970   0.970   0.970   0.970   0.970   0.970   0.970   0.970   0.970   0.970   0.970   0.970   0.970   0.970   0.970   0.970   0.970
    95.43    0.970   0.970   0.970   0.970   0.970   0.970   0.970   0.970   0.970   0.970   0.970   0.970   0.970   0.970   0.970   0.970   0.970   0.970   0.970   0.970   0.970   0.970   0.970   0.970   0.970   0.970   0.970   0.970   0.970   0.970   0.970
    90.00    0.970   0.970   0.970   0.970   0.970   0.970   0.970   0.970   0.970   0.970   0.970   0.970   0.970   0.970   0.970   0.970   0.970   0.970   0.970   0.970   0.970   0.970   0.970   0.970   0.970   0.970   0.970   0.970   0.970   0.970   0.970
    84.57    0.970   0.970   0.970   0.970   0.970   0.970   0.970   0.970   0.970   0.970   0.970   0.970   0.970   0.970   0.970   0.970   0.970   0.970   0.970   0.970   0.970   0.970   0.970   0.970   0.970   0.970   0.970   0.970   0.970   0.970   0.970
    79.13    0.970   0.970   0.970   0.970   0.970   0.970   0.970   0.970   0.970   0.970   0.970   0.970   0.970   0.970   0.970   0.970   0.970   0.970   0.970   0.970   0.970   0.970   0.970   0.970   0.970   0.970   0.970   0.970   0.970   0.970   0.970
    73.70    0.970   0.970   0.970   0.970   0.970   0.970   0.970   0.970   0.970   0.970   0.970   0.970   0.970   0.970   0.970   0.970   0.970   0.970   0.970   0.970   0.970   0.970   0.970   0.970   0.970   0.970   0.970   0.970   0.970   0.970   0.970
    68.27    0.970   0.970   0.970   0.970   0.970   0.970   0.970   0.970   0.970   0.970   0.970   0.970   0.970   0.970   0.970   0.970   0.970   0.970   0.970   0.970   0.970   0.970   0.970   0.970   0.970   0.970   0.970   0.970   0.970   0.970   0.970
    62.83    0.970   0.970   0.970   0.970   0.970   0.970   0.970   0.970   0.970   0.970   0.970   0.970   0.970   0.970   0.970   0.970   0.970   0.970   0.970   0.970   0.970   0.970   0.970   0.970   0.970   0.970   0.970   0.970   0.970   0.970   0.970
    57.40    0.970   0.970   0.970   0.970   0.970   0.970   0.970   0.970   0.970   0.970   0.970   0.970   0.970   0.970   0.970   0.970   0.970   0.970   0.970   0.970   0.970   0.970   0.970   0.970   0.970   0.970   0.970   0.970   0.970   0.970   0.970
    51.97    0.970   0.970   0.970   0.970   0.970   0.970   0.970   0.970   0.970   0.970   0.970   0.970   0.970   0.970   0.970   0.970   0.970   0.970   0.970   0.970   0.970   0.970   0.970   0.970   0.970   0.970   0.970   0.970   0.970   0.970   0.970
    46.53    0.970   0.970   0.970   0.970   0.970   0.970   0.970   0.970   0.970   0.970   0.970   0.970   0.970   0.970   0.970   0.970   0.970   0.970   0.970   0.970   0.970   0.970   0.970   0.970   0.970   0.970   0.970   0.970   0.970   0.970   0.970
    41.10    0.970   0.970   0.970   0.970   0.970   0.970   0.970   0.970   0.970   0.970   0.970   0.970   0.970   0.970   0.970   0.970   0.970   0.970   0.970   0.970   0.970   0.970   0.970   0.970   0.970   0.970   0.970   0.970   0.970   0.970   0.970
    35.67    0.970   0.970   0.970   0.970   0.970   0.970   0.970   0.970   0.970   0.970   0.970   0.970   0.970   0.970   0.970   0.970   0.970   0.970   0.970   0.970   0.970   0.970   0.970   0.970   0.970   0.970   0.970   0.970   0.970   0.970   0.970
    30.23    0.970   0.970   0.970   0.970   0.970   0.970   0.970   0.970   0.970   0.970   0.970   0.970   0.970   0.970   0.970   0.970   0.970   0.970   0.970   0.970   0.970   0.970   0.970   0.970   0.970   0.970   0.970   0.970   0.970   0.970   0.970
    24.80    0.970   0.970   0.970   0.970   0.970   0.970   0.970   0.970   0.970   0.970   0.970   0.970   0.970   0.970   0.970   0.970   0.970   0.970   0.970   0.970   0.970   0.970   0.970   0.970   0.970   0.970   0.970   0.970   0.970   0.970   0.970
    19.37    0.970   0.970   0.970   0.970   0.970   0.970   0.970   0.970   0.970   0.970   0.970   0.970   0.970   0.970   0.970   0.970   0.970   0.970   0.970   0.970   0.970   0.970   0.970   0.970   0.970   0.970   0.970   0.970   0.970   0.970   0.970
    13.93    0.970   0.970   0.970   0.970   0.970   0.970   0.970   0.970   0.970   0.970   0.970   0.970   0.970   0.970   0.970   0.970   0.970   0.970   0.970   0.970   0.970   0.970   0.970   0.970   0.970   0.970   0.970   0.970   0.970   0.970   0.970
     8.50    0.970   0.970   0.970   0.970   0.970   0.970   0.970   0.970   0.970   0.970   0.970   0.970   0.970   0.970   0.970   0.970   0.970   0.970   0.970   0.970   0.970   0.970   0.970   0.970   0.970   0.970   0.970   0.970   0.970   0.970   0.970

   Height   Standard deviation at grid points for the w component:
   171.50    0.758   0.758   0.758   0.758   0.758   0.758   0.758   0.758   0.758   0.758   0.758   0.758   0.758   0.758   0.758   0.758   0.758   0.758   0.758   0.758   0.758   0.758   0.758   0.758   0.758   0.758   0.758   0.758   0.758   0.758   0.758
   166.07    0.758   0.758   0.758   0.758   0.758   0.758   0.758   0.758   0.758   0.758   0.758   0.758   0.758   0.758   0.758   0.758   0.758   0.758   0.758   0.758   0.758   0.758   0.758   0.758   0.758   0.758   0.758   0.758   0.758   0.758   0.758
   160.63    0.758   0.758   0.758   0.758   0.758   0.758   0.758   0.758   0.758   0.758   0.758   0.758   0.758   0.758   0.758   0.758   0.758   0.758   0.758   0.758   0.758   0.758   0.758   0.758   0.758   0.758   0.758   0.758   0.758   0.758   0.758
   155.20    0.758   0.758   0.758   0.758   0.758   0.758   0.758   0.758   0.758   0.758   0.758   0.758   0.758   0.758   0.758   0.758   0.758   0.758   0.758   0.758   0.758   0.758   0.758   0.758   0.758   0.758   0.758   0.758   0.758   0.758   0.758
   149.77    0.758   0.758   0.758   0.758   0.758   0.758   0.758   0.758   0.758   0.758   0.758   0.758   0.758   0.758   0.758   0.758   0.758   0.758   0.758   0.758   0.758   0.758   0.758   0.758   0.758   0.758   0.758   0.758   0.758   0.758   0.758
   144.33    0.758   0.758   0.758   0.758   0.758   0.758   0.758   0.758   0.758   0.758   0.758   0.758   0.758   0.758   0.758   0.758   0.758   0.758   0.758   0.758   0.758   0.758   0.758   0.758   0.758   0.758   0.758   0.758   0.758   0.758   0.758
   138.90    0.758   0.758   0.758   0.758   0.758   0.758   0.758   0.758   0.758   0.758   0.758   0.758   0.758   0.758   0.758   0.758   0.758   0.758   0.758   0.758   0.758   0.758   0.758   0.758   0.758   0.758   0.758   0.758   0.758   0.758   0.758
   133.47    0.758   0.758   0.758   0.758   0.758   0.758   0.758   0.758   0.758   0.758   0.758   0.758   0.758   0.758   0.758   0.758   0.758   0.758   0.758   0.758   0.758   0.758   0.758   0.758   0.758   0.758   0.758   0.758   0.758   0.758   0.758
   128.03    0.758   0.758   0.758   0.758   0.758   0.758   0.758   0.758   0.758   0.758   0.758   0.758   0.758   0.758   0.758   0.758   0.758   0.758   0.758   0.758   0.758   0.758   0.758   0.758   0.758   0.758   0.758   0.758   0.758   0.758   0.758
   122.60    0.758   0.758   0.758   0.758   0.758   0.758   0.758   0.758   0.758   0.758   0.758   0.758   0.758   0.758   0.758   0.758   0.758   0.758   0.758   0.758   0.758   0.758   0.758   0.758   0.758   0.758   0.758   0.758   0.758   0.758   0.758
   117.17    0.758   0.758   0.758   0.758   0.758   0.758   0.758   0.758   0.758   0.758   0.758   0.758   0.758   0.758   0.758   0.758   0.758   0.758   0.758   0.758   0.758   0.758   0.758   0.758   0.758   0.758   0.758   0.758   0.758   0.758   0.758
   111.73    0.758   0.758   0.758   0.758   0.758   0.758   0.758   0.758   0.758   0.758   0.758   0.758   0.758   0.758   0.758   0.758   0.758   0.758   0.758   0.758   0.758   0.758   0.758   0.758   0.758   0.758   0.758   0.758   0.758   0.758   0.758
   106.30    0.758   0.758   0.758   0.758   0.758   0.758   0.758   0.758   0.758   0.758   0.758   0.758   0.758   0.758   0.758   0.758   0.758   0.758   0.758   0.758   0.758   0.758   0.758   0.758   0.758   0.758   0.758   0.758   0.758   0.758   0.758
   100.87    0.758   0.758   0.758   0.758   0.758   0.758   0.758   0.758   0.758   0.758   0.758   0.758   0.758   0.758   0.758   0.758   0.758   0.758   0.758   0.758   0.758   0.758   0.758   0.758   0.758   0.758   0.758   0.758   0.758   0.758   0.758
    95.43    0.758   0.758   0.758   0.758   0.758   0.758   0.758   0.758   0.758   0.758   0.758   0.758   0.758   0.758   0.758   0.758   0.758   0.758   0.758   0.758   0.758   0.758   0.758   0.758   0.758   0.758   0.758   0.758   0.758   0.758   0.758
    90.00    0.758   0.758   0.758   0.758   0.758   0.758   0.758   0.758   0.758   0.758   0.758   0.758   0.758   0.758   0.758   0.758   0.758   0.758   0.758   0.758   0.758   0.758   0.758   0.758   0.758   0.758   0.758   0.758   0.758   0.758   0.758
    84.57    0.758   0.758   0.758   0.758   0.758   0.758   0.758   0.758   0.758   0.758   0.758   0.758   0.758   0.758   0.758   0.758   0.758   0.758   0.758   0.758   0.758   0.758   0.758   0.758   0.758   0.758   0.758   0.758   0.758   0.758   0.758
    79.13    0.758   0.758   0.758   0.758   0.758   0.758   0.758   0.758   0.758   0.758   0.758   0.758   0.758   0.758   0.758   0.758   0.758   0.758   0.758   0.758   0.758   0.758   0.758   0.758   0.758   0.758   0.758   0.758   0.758   0.758   0.758
    73.70    0.758   0.758   0.758   0.758   0.758   0.758   0.758   0.758   0.758   0.758   0.758   0.758   0.758   0.758   0.758   0.758   0.758   0.758   0.758   0.758   0.758   0.758   0.758   0.758   0.758   0.758   0.758   0.758   0.758   0.758   0.758
    68.27    0.758   0.758   0.758   0.758   0.758   0.758   0.758   0.758   0.758   0.758   0.758   0.758   0.758   0.758   0.758   0.758   0.758   0.758   0.758   0.758   0.758   0.758   0.758   0.758   0.758   0.758   0.758   0.758   0.758   0.758   0.758
    62.83    0.758   0.758   0.758   0.758   0.758   0.758   0.758   0.758   0.758   0.758   0.758   0.758   0.758   0.758   0.758   0.758   0.758   0.758   0.758   0.758   0.758   0.758   0.758   0.758   0.758   0.758   0.758   0.758   0.758   0.758   0.758
    57.40    0.758   0.758   0.758   0.758   0.758   0.758   0.758   0.758   0.758   0.758   0.758   0.758   0.758   0.758   0.758   0.758   0.758   0.758   0.758   0.758   0.758   0.758   0.758   0.758   0.758   0.758   0.758   0.758   0.758   0.758   0.758
    51.97    0.758   0.758   0.758   0.758   0.758   0.758   0.758   0.758   0.758   0.758   0.758   0.758   0.758   0.758   0.758   0.758   0.758   0.758   0.758   0.758   0.758   0.758   0.758   0.758   0.758   0.758   0.758   0.758   0.758   0.758   0.758
    46.53    0.758   0.758   0.758   0.758   0.758   0.758   0.758   0.758   0.758   0.758   0.758   0.758   0.758   0.758   0.758   0.758   0.758   0.758   0.758   0.758   0.758   0.758   0.758   0.758   0.758   0.758   0.758   0.758   0.758   0.758   0.758
    41.10    0.758   0.758   0.758   0.758   0.758   0.758   0.758   0.758   0.758   0.758   0.758   0.758   0.758   0.758   0.758   0.758   0.758   0.758   0.758   0.758   0.758   0.758   0.758   0.758   0.758   0.758   0.758   0.758   0.758   0.758   0.758
    35.67    0.758   0.758   0.758   0.758   0.758   0.758   0.758   0.758   0.758   0.758   0.758   0.758   0.758   0.758   0.758   0.758   0.758   0.758   0.758   0.758   0.758   0.758   0.758   0.758   0.758   0.758   0.758   0.758   0.758   0.758   0.758
    30.23    0.758   0.758   0.758   0.758   0.758   0.758   0.758   0.758   0.758   0.758   0.758   0.758   0.758   0.758   0.758   0.758   0.758   0.758   0.758   0.758   0.758   0.758   0.758   0.758   0.758   0.758   0.758   0.758   0.758   0.758   0.758
    24.80    0.758   0.758   0.758   0.758   0.758   0.758   0.758   0.758   0.758   0.758   0.758   0.758   0.758   0.758   0.758   0.758   0.758   0.758   0.758   0.758   0.758   0.758   0.758   0.758   0.758   0.758   0.758   0.758   0.758   0.758   0.758
    19.37    0.758   0.758   0.758   0.758   0.758   0.758   0.758   0.758   0.758   0.758   0.758   0.758   0.758   0.758   0.758   0.758   0.758   0.758   0.758   0.758   0.758   0.758   0.758   0.758   0.758   0.758   0.758   0.758   0.758   0.758   0.758
    13.93    0.758   0.758   0.758   0.758   0.758   0.758   0.758   0.758   0.758   0.758   0.758   0.758   0.758   0.758   0.758   0.758   0.758   0.758   0.758   0.758   0.758   0.758   0.758   0.758   0.758   0.758   0.758   0.758   0.758   0.758   0.758
     8.50    0.758   0.758   0.758   0.758   0.758   0.758   0.758   0.758   0.758   0.758   0.758   0.758   0.758   0.758   0.758   0.758   0.758   0.758   0.758   0.758   0.758   0.758   0.758   0.758   0.758   0.758   0.758   0.758   0.758   0.758   0.758

   Mean standard deviation across all grid points:
      u component:    0.968 m/s
      v component:    0.970 m/s
      w component:    0.758 m/s


U-component (X) statistics from the interpolated hub point:

   Mean =   7.0000 m/s
   TI   =  20.9488 %


Processing complete.  1.9531 CPU seconds used.
