
This summary file was generated by TurbSim (from OpenFAST-v4.1.2) on 11-Feb-2026 at 17:52:52.


Runtime Options:

-403004701  Random seed #1
    RANLUX  Type of random number generator
         F  Output binary HH turbulence parameters?
         F  Output formatted turbulence parameters?
         F  Output AeroDyn HH files?
         T  Output AeroDyn FF files?
         F  Output BLADED FF files?
         F  Output tower data?
         F  Output HAWC FF files?
         T  Output formatted FF files?
         F  Output coherent turbulence time step file?
 0 -  NONE  IEC turbulence models scaled to exact specified standard deviation


Turbine/Model Specifications:

        31  Vertical grid-point matrix dimension
        31  Horizontal grid-point matrix dimension
     0.050  Time step [seconds]
    30.000  Analysis time [seconds]
    30.000  Usable output time [seconds]
    90.000  Hub height [m]
   163.000  Grid height [m]
   163.000  Grid width [m]
     0.000  Vertical flow angle [degrees]
     0.000  Horizontal flow angle [degrees]


Meteorological Boundary Conditions:

    IECKAI  IEC Kaimal spectral model
         1  IEC standard: IEC 61400-1 Ed. 3: 2005
         A  IEC turbulence characteristic
       NTM  IEC Normal Turbulence Model
       N/A  IEC Extreme Turbulence Model (ETM) "c" parameter [m/s]
       PL   Wind profile type
    90.000  Reference height [m]
     7.000  Reference wind speed [m/s]
       N/A  Jet height [m]
     0.200  Power law exponent
     0.030  Surface roughness length [m]


Non-IEC Meteorological Boundary Conditions:

       N/A  Site latitude [degrees]
       N/A  Gradient Richardson number
       N/A  Friction or shear velocity [m/s]
       N/A  Mixing layer depth [m]
       N/A  Mean hub u'w' Reynolds stress
       N/A  Mean hub u'v' Reynolds stress
       N/A  Mean hub v'w' Reynolds stress


Spatial Coherence Models:

       IEC  u-component coherence model
      NONE  v-component coherence model
      NONE  w-component coherence model
(   12.000, 0.353E-03)  u-component coherence parameters
                   N/A  v-component coherence parameters
                   N/A  w-component coherence parameters
       N/A  Coherence exponent


You have requested that the following file(s) be generated:

   Generator/TurbSim1.bts (AeroDyn/TurbSim full-field wind file)
   Generator/TurbSim1.u (formatted full-field U-component file)
   Generator/TurbSim1.v (formatted full-field V-component file)
   Generator/TurbSim1.w (formatted full-field W-component file)


Turbulence Simulation Scaling Parameter Summary:

   Turbulence model used                            =  IEC Kaimal
   Turbulence characteristic                        =  A
   IEC turbulence type                              =  Normal Turbulence Model
   IEC standard                                     =  IEC 61400-1 Ed. 3: 2005
   Mean wind speed at hub height                    =    7.000 m/s
   Expected value of turbulence intensity at 15 m/s =   16.000%
   Characteristic value of standard deviation       =    1.736 m/s
   Turbulence scale                                 =   42.000 m
   u-component integral scale                       =  340.200 m
   Coherency scale                                  =  340.200 m
   Characteristic value of hub turbulence intensity =   24.800%
   Gradient Richardson number                       =    0.000

   Wind profile type                                =  Power law
   Power law exponent                               =    0.200
   Mean shear across rotor disk                     =    0.022 (m/s)/m
   Assumed rotor diameter                           =  163.000 m
   Surface roughness length                         =    0.030 m

   Nyquist frequency of turbulent wind field        =   10.000 Hz

   Number of time steps in the FFT                  =      600
   Number of time steps output                      =      600
   Number of points simulated                       =      961


Mean Flow Angles:

   Vertical   =   0.0 degrees
   Horizontal =   0.0 degrees

Mean Wind Speed Profile:

   Height    Wind Speed   Horizontal Angle  Vertical Angle  U-comp (X)   V-comp (Y)   W-comp (Z)
     (m)        (m/s)         (degrees)       (degrees)       (m/s)        (m/s)        (m/s)   
   ------    ----------   ----------------  --------------  ----------   ----------   ----------
    171.5        7.96            0.00            0.00          7.96         0.00         0.00
    166.1        7.91            0.00            0.00          7.91         0.00         0.00
    160.6        7.86            0.00            0.00          7.86         0.00         0.00
    155.2        7.81            0.00            0.00          7.81         0.00         0.00
    149.8        7.75            0.00            0.00          7.75         0.00         0.00
    144.3        7.69            0.00            0.00          7.69         0.00         0.00
    138.9        7.63            0.00            0.00          7.63         0.00         0.00
    133.5        7.57            0.00            0.00          7.57         0.00         0.00
    128.0        7.51            0.00            0.00          7.51         0.00         0.00
    122.6        7.45            0.00            0.00          7.45         0.00         0.00
    117.2        7.38            0.00            0.00          7.38         0.00         0.00
    111.7        7.31            0.00            0.00          7.31         0.00         0.00
    106.3        7.24            0.00            0.00          7.24         0.00         0.00
    100.9        7.16            0.00            0.00          7.16         0.00         0.00
     95.4        7.08            0.00            0.00          7.08         0.00         0.00
     90.0        7.00            0.00            0.00          7.00         0.00         0.00
     84.6        6.91            0.00            0.00          6.91         0.00         0.00
     79.1        6.82            0.00            0.00          6.82         0.00         0.00
     73.7        6.73            0.00            0.00          6.73         0.00         0.00
     68.3        6.62            0.00            0.00          6.62         0.00         0.00
     62.8        6.51            0.00            0.00          6.51         0.00         0.00
     57.4        6.40            0.00            0.00          6.40         0.00         0.00
     52.0        6.27            0.00            0.00          6.27         0.00         0.00
     46.5        6.13            0.00            0.00          6.13         0.00         0.00
     41.1        5.98            0.00            0.00          5.98         0.00         0.00
     35.7        5.82            0.00            0.00          5.82         0.00         0.00
     30.2        5.63            0.00            0.00          5.63         0.00         0.00
     24.8        5.41            0.00            0.00          5.41         0.00         0.00
     19.4        5.15            0.00            0.00          5.15         0.00         0.00
     13.9        4.82            0.00            0.00          4.82         0.00         0.00
      8.5        4.37            0.00            0.00          4.37         0.00         0.00


Harvested Random Seeds after Generation of the Random Numbers:

      8036263 K 1
            0 K 2


Hub-Height Simulated Turbulence Statistical Summary:

   Type of Wind        Min (m/s)   Mean (m/s)    Max (m/s)  Sigma (m/s)       TI (%)
   ----------------    ---------   ----------    ---------  -----------       ------
   Longitudinal (u)         4.52         7.00         9.83        1.067       15.239
   Lateral (v)             -2.45        -0.00         2.40        0.970       13.858
   Vertical (w)            -1.92         0.00         2.14        0.758       10.835
   U component              4.52         7.00         9.83        1.067       15.239
   V component             -2.45        -0.00         2.40        0.970       13.858
   W component             -1.92         0.00         2.14        0.758       10.835
   Horizontal (U&V)         4.69         7.07         9.83        1.055       14.929
   Total                    4.76         7.11         9.85        1.041       14.639

                       Min Reynolds     Mean Reynolds    Max Reynolds    Correlation
   Product             Stress (m/s)^2   Stress (m/s)^2   Stress (m/s)^2  Coefficient
   ----------------    --------------   --------------   --------------  -----------
   u'w'                     -3.456            -0.149             2.250        -0.184
   u'v'                     -3.252            -0.140             2.057        -0.135
   v'w'                     -1.561             0.219             3.794         0.297


   Friction Velocity (Ustar)  =      0.386 m/s
   Maximum Instantaneous TKE  =      4.326 (m/s)^2
   Maximum Instantaneous CTKE =      2.249 (m/s)^2


Grid Point Variance Summary:

   Y-coord  -81.50  -76.07  -70.63  -65.20  -59.77  -54.33  -48.90  -43.47  -38.03  -32.60  -27.17  -21.73  -16.30  -10.87   -5.43    0.00    5.43   10.87   16.30   21.73   27.17   32.60   38.03   43.47   48.90   54.33   59.77   65.20   70.63   76.07   81.50

   Height   Standard deviation at grid points for the u component:
   171.50    0.617   1.051   1.027   1.519   1.279   1.154   1.614   1.571   1.246   0.953   0.856   0.747   0.685   0.803   0.896   0.991   1.125   1.311   0.717   0.931   0.894   0.774   0.811   0.834   0.996   0.846   0.647   0.756   0.818   0.965   0.734
   166.07    0.687   1.099   1.279   1.553   1.709   1.370   1.641   1.743   1.335   1.040   0.598   0.933   0.868   1.011   0.872   0.825   0.958   0.931   0.938   0.882   1.009   0.744   0.640   0.880   0.781   0.677   0.673   0.943   1.048   1.021   0.637
   160.63    1.015   1.228   1.039   1.502   1.289   1.476   1.582   1.501   1.560   0.940   0.885   0.751   0.925   0.810   0.973   0.708   0.922   0.694   0.628   0.650   0.840   0.757   1.033   0.841   0.631   0.669   0.669   1.022   0.770   0.738   0.798
   155.20    0.665   0.866   0.981   1.240   1.407   1.309   1.302   1.297   1.251   1.158   0.828   0.638   0.824   0.885   0.777   0.847   0.750   0.964   0.824   0.899   0.887   1.051   0.929   0.855   1.063   0.815   0.786   1.063   1.391   0.962   1.208
   149.77    0.708   0.731   0.668   0.899   1.129   1.001   1.214   1.139   1.001   0.883   0.743   0.773   0.615   0.758   0.648   0.691   0.781   0.861   0.926   0.642   0.719   0.847   0.774   1.252   0.882   0.952   0.761   1.076   1.209   1.104   1.089
   144.33    0.824   0.819   0.745   0.779   0.966   0.922   1.172   1.142   0.931   0.680   0.729   0.621   0.729   0.708   0.716   0.899   0.774   0.691   0.786   0.986   1.102   0.929   1.147   1.391   1.134   0.852   0.948   0.946   0.882   0.729   0.650
   138.90    0.646   0.781   0.596   0.642   0.768   0.691   0.931   1.222   0.940   0.964   0.990   0.622   0.892   0.898   0.627   0.675   1.001   1.047   0.881   1.115   0.986   0.734   0.863   1.043   1.097   0.954   0.735   0.899   0.740   0.578   0.888
   133.47    0.732   0.677   0.738   0.773   0.923   0.715   0.874   0.962   1.004   1.031   1.059   1.135   0.955   1.161   1.233   1.126   1.062   0.784   1.011   1.046   0.911   0.719   0.697   0.836   0.910   0.809   0.774   0.895   0.844   0.796   0.937
   128.03    0.750   0.710   0.866   0.924   0.729   0.788   0.785   0.855   0.796   0.796   0.935   1.099   1.200   1.173   0.990   1.052   0.742   0.705   0.791   0.967   0.749   0.763   0.777   0.818   0.692   0.633   0.938   1.087   0.918   0.685   1.040
   122.60    0.823   0.910   0.830   1.032   0.960   0.872   0.681   0.702   0.889   1.093   0.951   0.921   0.699   1.084   1.251   1.040   0.911   0.625   0.738   0.676   0.800   0.756   0.853   0.707   0.750   0.788   0.860   1.054   0.773   0.713   0.894
   117.17    1.287   1.137   0.679   0.869   1.004   0.692   0.803   0.717   0.731   0.972   0.947   0.673   0.839   1.225   1.335   1.080   0.797   0.854   0.886   0.703   0.722   0.875   0.714   0.852   0.668   0.715   0.757   1.021   0.881   1.092   0.977
   111.73    1.282   0.919   0.822   1.087   1.108   1.008   0.730   0.905   0.860   0.974   0.683   0.751   0.727   1.158   1.162   0.961   0.865   0.823   0.811   0.743   0.649   0.824   0.827   0.825   0.595   0.833   0.720   1.024   1.208   0.927   0.946
   106.30    1.174   0.951   1.121   1.212   1.095   0.719   0.650   0.828   0.728   0.970   0.791   0.903   0.972   1.293   1.275   1.054   0.703   0.846   0.720   0.636   0.705   0.680   0.875   0.764   0.991   0.875   0.792   0.906   1.115   1.081   0.720
   100.87    1.101   1.003   0.907   1.118   0.719   0.926   0.994   0.698   0.696   0.948   1.109   0.747   0.936   1.164   0.924   0.711   0.642   0.713   0.703   0.697   0.913   0.756   0.912   1.009   0.912   0.950   0.797   0.869   0.933   0.874   0.781
    95.43    1.238   0.840   1.089   0.680   1.010   1.045   0.833   1.142   0.787   0.931   1.071   1.063   1.060   1.013   0.864   0.856   0.835   0.815   0.857   0.674   1.056   0.910   1.014   1.031   0.786   1.037   0.871   0.753   0.764   0.653   0.693
    90.00    1.085   0.954   1.065   0.964   0.887   0.679   0.854   1.186   0.884   1.246   1.017   0.798   0.879   0.659   0.898   1.067   0.914   0.615   0.890   0.601   0.796   0.940   0.955   1.039   1.181   1.204   0.587   0.710   0.582   0.962   0.960
    84.57    0.996   1.018   0.958   0.938   0.830   1.037   0.877   0.848   1.332   1.183   1.345   0.861   0.697   0.789   0.830   0.936   0.945   0.960   1.139   0.705   0.683   0.704   0.843   0.868   0.731   0.705   0.721   0.603   0.780   0.813   0.969
    79.13    0.830   1.143   0.840   0.664   0.746   0.811   0.961   0.822   1.157   1.279   1.310   0.831   1.115   0.731   1.077   1.294   1.393   0.941   0.973   0.836   0.716   0.622   0.563   0.801   0.556   0.676   0.810   0.742   0.852   0.783   0.781
    73.70    1.062   1.231   1.176   0.888   1.145   0.897   0.656   0.887   1.127   1.048   1.156   0.773   0.878   1.048   1.052   1.319   1.386   0.910   1.117   0.841   1.067   0.957   0.831   0.729   0.907   0.911   0.898   0.856   0.962   0.643   0.770
    68.27    0.943   1.070   0.862   0.919   0.974   1.002   0.694   0.800   1.040   0.893   0.738   1.124   0.896   1.021   1.024   1.383   1.087   1.171   1.021   0.909   1.117   0.962   0.598   0.672   0.849   0.844   0.868   0.828   0.910   0.825   0.799
    62.83    0.973   0.751   1.001   1.008   0.927   0.702   1.036   1.126   0.978   0.834   0.905   1.161   1.069   0.859   0.870   1.151   1.159   0.910   1.090   0.913   0.977   0.789   0.905   0.681   0.711   0.898   0.873   0.612   0.672   0.759   0.670
    57.40    0.783   0.927   0.889   0.797   1.015   1.024   1.066   1.080   0.755   0.730   0.804   0.806   0.984   0.825   0.686   1.078   0.775   0.995   1.129   1.161   1.103   0.995   0.754   0.785   0.758   0.846   1.115   0.874   0.772   0.785   0.776
    51.97    0.975   0.850   0.856   1.038   1.096   1.077   0.813   0.896   0.737   0.797   0.883   1.111   0.968   1.048   0.657   1.128   1.234   0.974   1.027   1.042   0.707   0.670   0.737   0.838   0.896   1.096   1.135   1.102   0.936   0.850   0.857
    46.53    0.932   0.781   0.765   1.160   0.814   0.742   0.752   0.780   0.873   0.735   0.786   0.793   0.838   0.778   1.091   0.983   1.157   1.039   1.221   1.412   0.966   0.700   0.724   0.966   0.814   0.926   1.100   1.088   0.720   0.768   0.701
    41.10    0.810   0.758   1.001   1.127   1.118   0.862   0.772   0.915   0.872   0.813   0.840   0.692   0.698   0.831   1.152   1.158   1.173   0.871   1.136   1.111   1.172   0.984   0.729   0.904   0.782   0.911   0.905   0.823   0.637   0.619   0.747
    35.67    0.855   0.734   0.682   0.668   0.723   0.845   0.700   0.811   0.792   0.755   0.878   0.860   1.156   1.182   0.992   1.038   0.830   0.802   0.988   1.120   1.344   1.031   0.847   0.837   0.667   0.673   0.879   0.875   0.862   0.978   0.851
    30.23    0.956   0.619   1.053   0.784   0.698   0.900   0.698   0.870   0.697   0.635   0.653   0.656   1.103   1.231   1.051   0.845   0.885   0.774   0.932   1.119   1.110   0.976   0.645   0.857   0.810   0.678   0.693   0.833   0.967   0.703   0.739
    24.80    0.878   1.049   1.095   0.706   0.797   1.094   1.002   0.585   0.812   0.679   0.706   1.003   1.276   1.170   0.960   0.656   0.874   1.064   0.932   1.041   0.743   0.993   0.695   0.782   0.802   0.581   0.693   0.960   0.887   0.808   0.864
    19.37    0.710   0.855   1.065   0.819   0.715   0.963   0.934   0.798   0.864   0.758   0.802   0.910   1.082   1.136   1.273   0.711   0.709   1.079   1.298   0.862   0.857   0.739   0.660   0.796   0.875   0.815   0.715   1.021   1.224   1.098   0.735
    13.93    0.700   0.927   0.863   1.005   0.857   0.799   0.953   0.912   0.619   0.665   0.607   0.915   1.153   1.028   1.000   0.882   0.679   0.790   1.042   1.258   0.831   0.645   0.602   0.723   0.730   0.614   0.597   0.945   1.179   1.044   0.705
     8.50    0.914   0.703   0.879   0.888   0.763   0.947   0.830   0.773   0.691   0.872   0.926   0.748   0.985   1.163   0.979   0.705   0.675   0.780   0.927   1.119   0.948   0.881   0.721   0.645   0.777   0.719   0.838   0.971   0.979   1.048   1.022

   Height   Standard deviation at grid points for the v component:
   171.50    0.970   0.970   0.970   0.970   0.970   0.970   0.970   0.970   0.970   0.970   0.970   0.970   0.970   0.970   0.970   0.970   0.970   0.970   0.970   0.970   0.970   0.970   0.970   0.970   0.970   0.970   0.970   0.970   0.970   0.970   0.970
   166.07    0.970   0.970   0.970   0.970   0.970   0.970   0.970   0.970   0.970   0.970   0.970   0.970   0.970   0.970   0.970   0.970   0.970   0.970   0.970   0.970   0.970   0.970   0.970   0.970   0.970   0.970   0.970   0.970   0.970   0.970   0.970
   160.63    0.970   0.970   0.970   0.970   0.970   0.970   0.970   0.970   0.970   0.970   0.970   0.970   0.970   0.970   0.970   0.970   0.970   0.970   0.970   0.970   0.970   0.970   0.970   0.970   0.970   0.970   0.970   0.970   0.970   0.970   0.970
   155.20    0.970   0.970   0.970   0.970   0.970   0.970   0.970   0.970   0.970   0.970   0.970   0.970   0.970   0.970   0.970   0.970   0.970   0.970   0.970   0.970   0.970   0.970   0.970   0.970   0.970   0.970   0.970   0.970   0.970   0.970   0.970
   149.77    0.970   0.970   0.970   0.970   0.970   0.970   0.970   0.970   0.970   0.970   0.970   0.970   0.970   0.970   0.970   0.970   0.970   0.970   0.970   0.970   0.970   0.970   0.970   0.970   0.970   0.970   0.970   0.970   0.970   0.970   0.970
   144.33    0.970   0.970   0.970   0.970   0.970   0.970   0.970   0.970   0.970   0.970   0.970   0.970   0.970   0.970   0.970   0.970   0.970   0.970   0.970   0.970   0.970   0.970   0.970   0.970   0.970   0.970   0.970   0.970   0.970   0.970   0.970
   138.90    0.970   0.970   0.970   0.970   0.970   0.970   0.970   0.970   0.970   0.970   0.970   0.970   0.970   0.970   0.970   0.970   0.970   0.970   0.970   0.970   0.970   0.970   0.970   0.970   0.970   0.970   0.970   0.970   0.970   0.970   0.970
   133.47    0.970   0.970   0.970   0.970   0.970   0.970   0.970   0.970   0.970   0.970   0.970   0.970   0.970   0.970   0.970   0.970   0.970   0.970   0.970   0.970   0.970   0.970   0.970   0.970   0.970   0.970   0.970   0.970   0.970   0.970   0.970
   128.03    0.970   0.970   0.970   0.970   0.970   0.970   0.970   0.970   0.970   0.970   0.970   0.970   0.970   0.970   0.970   0.970   0.970   0.970   0.970   0.970   0.970   0.970   0.970   0.970   0.970   0.970   0.970   0.970   0.970   0.970   0.970
   122.60    0.970   0.970   0.970   0.970   0.970   0.970   0.970   0.970   0.970   0.970   0.970   0.970   0.970   0.970   0.970   0.970   0.970   0.970   0.970   0.970   0.970   0.970   0.970   0.970   0.970   0.970   0.970   0.970   0.970   0.970   0.970
   117.17    0.970   0.970   0.970   0.970   0.970   0.970   0.970   0.970   0.970   0.970   0.970   0.970   0.970   0.970   0.970   0.970   0.970   0.970   0.970   0.970   0.970   0.970   0.970   0.970   0.970   0.970   0.970   0.970   0.970   0.970   0.970
   111.73    0.970   0.970   0.970   0.970   0.970   0.970   0.970   0.970   0.970   0.970   0.970   0.970   0.970   0.970   0.970   0.970   0.970   0.970   0.970   0.970   0.970   0.970   0.970   0.970   0.970   0.970   0.970   0.970   0.970   0.970   0.970
   106.30    0.970   0.970   0.970   0.970   0.970   0.970   0.970   0.970   0.970   0.970   0.970   0.970   0.970   0.970   0.970   0.970   0.970   0.970   0.970   0.970   0.970   0.970   0.970   0.970   0.970   0.970   0.970   0.970   0.970   0.970   0.970
   100.87    0.970   0.970   0.970   0.970   0.970   0.970   0.970   0.970   0.970   0.970   0.970   0.970   0.970   0.970   0.970   0.970   0.970   0.970   0.970   0.970   0.970   0.970   0.970   0.970   0.970   0.970   0.970   0.970   0.970   0.970   0.970
    95.43    0.970   0.970   0.970   0.970   0.970   0.970   0.970   0.970   0.970   0.970   0.970   0.970   0.970   0.970   0.970   0.970   0.970   0.970   0.970   0.970   0.970   0.970   0.970   0.970   0.970   0.970   0.970   0.970   0.970   0.970   0.970
    90.00    0.970   0.970   0.970   0.970   0.970   0.970   0.970   0.970   0.970   0.970   0.970   0.970   0.970   0.970   0.970   0.970   0.970   0.970   0.970   0.970   0.970   0.970   0.970   0.970   0.970   0.970   0.970   0.970   0.970   0.970   0.970
    84.57    0.970   0.970   0.970   0.970   0.970   0.970   0.970   0.970   0.970   0.970   0.970   0.970   0.970   0.970   0.970   0.970   0.970   0.970   0.970   0.970   0.970   0.970   0.970   0.970   0.970   0.970   0.970   0.970   0.970   0.970   0.970
    79.13    0.970   0.970   0.970   0.970   0.970   0.970   0.970   0.970   0.970   0.970   0.970   0.970   0.970   0.970   0.970   0.970   0.970   0.970   0.970   0.970   0.970   0.970   0.970   0.970   0.970   0.970   0.970   0.970   0.970   0.970   0.970
    73.70    0.970   0.970   0.970   0.970   0.970   0.970   0.970   0.970   0.970   0.970   0.970   0.970   0.970   0.970   0.970   0.970   0.970   0.970   0.970   0.970   0.970   0.970   0.970   0.970   0.970   0.970   0.970   0.970   0.970   0.970   0.970
    68.27    0.970   0.970   0.970   0.970   0.970   0.970   0.970   0.970   0.970   0.970   0.970   0.970   0.970   0.970   0.970   0.970   0.970   0.970   0.970   0.970   0.970   0.970   0.970   0.970   0.970   0.970   0.970   0.970   0.970   0.970   0.970
    62.83    0.970   0.970   0.970   0.970   0.970   0.970   0.970   0.970   0.970   0.970   0.970   0.970   0.970   0.970   0.970   0.970   0.970   0.970   0.970   0.970   0.970   0.970   0.970   0.970   0.970   0.970   0.970   0.970   0.970   0.970   0.970
    57.40    0.970   0.970   0.970   0.970   0.970   0.970   0.970   0.970   0.970   0.970   0.970   0.970   0.970   0.970   0.970   0.970   0.970   0.970   0.970   0.970   0.970   0.970   0.970   0.970   0.970   0.970   0.970   0.970   0.970   0.970   0.970
    51.97    0.970   0.970   0.970   0.970   0.970   0.970   0.970   0.970   0.970   0.970   0.970   0.970   0.970   0.970   0.970   0.970   0.970   0.970   0.970   0.970   0.970   0.970   0.970   0.970   0.970   0.970   0.970   0.970   0.970   0.970   0.970
    46.53    0.970   0.970   0.970   0.970   0.970   0.970   0.970   0.970   0.970   0.970   0.970   0.970   0.970   0.970   0.970   0.970   0.970   0.970   0.970   0.970   0.970   0.970   0.970   0.970   0.970   0.970   0.970   0.970   0.970   0.970   0.970
    41.10    0.970   0.970   0.970   0.970   0.970   0.970   0.970   0.970   0.970   0.970   0.970   0.970   0.970   0.970   0.970   0.970   0.970   0.970   0.970   0.970   0.970   0.970   0.970   0.970   0.970   0.970   0.970   0.970   0.970   0.970   0.970
    35.67    0.970   0.970   0.970   0.970   0.970   0.970   0.970   0.970   0.970   0.970   0.970   0.970   0.970   0.970   0.970   0.970   0.970   0.970   0.970   0.970   0.970   0.970   0.970   0.970   0.970   0.970   0.970   0.970   0.970   0.970   0.970
    30.23    0.970   0.970   0.970   0.970   0.970   0.970   0.970   0.970   0.970   0.970   0.970   0.970   0.970   0.970   0.970   0.970   0.970   0.970   0.970   0.970   0.970   0.970   0.970   0.970   0.970   0.970   0.970   0.970   0.970   0.970   0.970
    24.80    0.970   0.970   0.970   0.970   0.970   0.970   0.970   0.970   0.970   0.970   0.970   0.970   0.970   0.970   0.970   0.970   0.970   0.970   0.970   0.970   0.970   0.970   0.970   0.970   0.970   0.970   0.970   0.970   0.970   0.970   0.970
    19.37    0.970   0.970   0.970   0.970   0.970   0.970   0.970   0.970   0.970   0.970   0.970   0.970   0.970   0.970   0.970   0.970   0.970   0.970   0.970   0.970   0.970   0.970   0.970   0.970   0.970   0.970   0.970   0.970   0.970   0.970   0.970
    13.93    0.970   0.970   0.970   0.970   0.970   0.970   0.970   0.970   0.970   0.970   0.970   0.970   0.970   0.970   0.970   0.970   0.970   0.970   0.970   0.970   0.970   0.970   0.970   0.970   0.970   0.970   0.970   0.970   0.970   0.970   0.970
     8.50    0.970   0.970   0.970   0.970   0.970   0.970   0.970   0.970   0.970   0.970   0.970   0.970   0.970   0.970   0.970   0.970   0.970   0.970   0.970   0.970   0.970   0.970   0.970   0.970   0.970   0.970   0.970   0.970   0.970   0.970   0.970

   Height   Standard deviation at grid points for the w component:
   171.50    0.758   0.758   0.758   0.758   0.758   0.758   0.758   0.758   0.758   0.758   0.758   0.758   0.758   0.758   0.758   0.758   0.758   0.758   0.758   0.758   0.758   0.758   0.758   0.758   0.758   0.758   0.758   0.758   0.758   0.758   0.758
   166.07    0.758   0.758   0.758   0.758   0.758   0.758   0.758   0.758   0.758   0.758   0.758   0.758   0.758   0.758   0.758   0.758   0.758   0.758   0.758   0.758   0.758   0.758   0.758   0.758   0.758   0.758   0.758   0.758   0.758   0.758   0.758
   160.63    0.758   0.758   0.758   0.758   0.758   0.758   0.758   0.758   0.758   0.758   0.758   0.758   0.758   0.758   0.758   0.758   0.758   0.758   0.758   0.758   0.758   0.758   0.758   0.758   0.758   0.758   0.758   0.758   0.758   0.758   0.758
   155.20    0.758   0.758   0.758   0.758   0.758   0.758   0.758   0.758   0.758   0.758   0.758   0.758   0.758   0.758   0.758   0.758   0.758   0.758   0.758   0.758   0.758   0.758   0.758   0.758   0.758   0.758   0.758   0.758   0.758   0.758   0.758
   149.77    0.758   0.758   0.758   0.758   0.758   0.758   0.758   0.758   0.758   0.758   0.758   0.758   0.758   0.758   0.758   0.758   0.758   0.758   0.758   0.758   0.758   0.758   0.758   0.758   0.758   0.758   0.758   0.758   0.758   0.758   0.758
   144.33    0.758   0.758   0.758   0.758   0.758   0.758   0.758   0.758   0.758   0.758   0.758   0.758   0.758   0.758   0.758   0.758   0.758   0.758   0.758   0.758   0.758   0.758   0.758   0.758   0.758   0.758   0.758   0.758   0.758   0.758   0.758
   138.90    0.758   0.758   0.758   0.758   0.758   0.758   0.758   0.758   0.758   0.758   0.758   0.758   0.758   0.758   0.758   0.758   0.758   0.758   0.758   0.758   0.758   0.758   0.758   0.758   0.758   0.758   0.758   0.758   0.758   0.758   0.758
   133.47    0.758   0.758   0.758   0.758   0.758   0.758   0.758   0.758   0.758   0.758   0.758   0.758   0.758   0.758   0.758   0.758   0.758   0.758   0.758   0.758   0.758   0.758   0.758   0.758   0.758   0.758   0.758   0.758   0.758   0.758   0.758
   128.03    0.758   0.758   0.758   0.758   0.758   0.758   0.758   0.758   0.758   0.758   0.758   0.758   0.758   0.758   0.758   0.758   0.758   0.758   0.758   0.758   0.758   0.758   0.758   0.758   0.758   0.758   0.758   0.758   0.758   0.758   0.758
   122.60    0.758   0.758   0.758   0.758   0.758   0.758   0.758   0.758   0.758   0.758   0.758   0.758   0.758   0.758   0.758   0.758   0.758   0.758   0.758   0.758   0.758   0.758   0.758   0.758   0.758   0.758   0.758   0.758   0.758   0.758   0.758
   117.17    0.758   0.758   0.758   0.758   0.758   0.758   0.758   0.758   0.758   0.758   0.758   0.758   0.758   0.758   0.758   0.758   0.758   0.758   0.758   0.758   0.758   0.758   0.758   0.758   0.758   0.758   0.758   0.758   0.758   0.758   0.758
   111.73    0.758   0.758   0.758   0.758   0.758   0.758   0.758   0.758   0.758   0.758   0.758   0.758   0.758   0.758   0.758   0.758   0.758   0.758   0.758   0.758   0.758   0.758   0.758   0.758   0.758   0.758   0.758   0.758   0.758   0.758   0.758
   106.30    0.758   0.758   0.758   0.758   0.758   0.758   0.758   0.758   0.758   0.758   0.758   0.758   0.758   0.758   0.758   0.758   0.758   0.758   0.758   0.758   0.758   0.758   0.758   0.758   0.758   0.758   0.758   0.758   0.758   0.758   0.758
   100.87    0.758   0.758   0.758   0.758   0.758   0.758   0.758   0.758   0.758   0.758   0.758   0.758   0.758   0.758   0.758   0.758   0.758   0.758   0.758   0.758   0.758   0.758   0.758   0.758   0.758   0.758   0.758   0.758   0.758   0.758   0.758
    95.43    0.758   0.758   0.758   0.758   0.758   0.758   0.758   0.758   0.758   0.758   0.758   0.758   0.758   0.758   0.758   0.758   0.758   0.758   0.758   0.758   0.758   0.758   0.758   0.758   0.758   0.758   0.758   0.758   0.758   0.758   0.758
    90.00    0.758   0.758   0.758   0.758   0.758   0.758   0.758   0.758   0.758   0.758   0.758   0.758   0.758   0.758   0.758   0.758   0.758   0.758   0.758   0.758   0.758   0.758   0.758   0.758   0.758   0.758   0.758   0.758   0.758   0.758   0.758
    84.57    0.758   0.758   0.758   0.758   0.758   0.758   0.758   0.758   0.758   0.758   0.758   0.758   0.758   0.758   0.758   0.758   0.758   0.758   0.758   0.758   0.758   0.758   0.758   0.758   0.758   0.758   0.758   0.758   0.758   0.758   0.758
    79.13    0.758   0.758   0.758   0.758   0.758   0.758   0.758   0.758   0.758   0.758   0.758   0.758   0.758   0.758   0.758   0.758   0.758   0.758   0.758   0.758   0.758   0.758   0.758   0.758   0.758   0.758   0.758   0.758   0.758   0.758   0.758
    73.70    0.758   0.758   0.758   0.758   0.758   0.758   0.758   0.758   0.758   0.758   0.758   0.758   0.758   0.758   0.758   0.758   0.758   0.758   0.758   0.758   0.758   0.758   0.758   0.758   0.758   0.758   0.758   0.758   0.758   0.758   0.758
    68.27    0.758   0.758   0.758   0.758   0.758   0.758   0.758   0.758   0.758   0.758   0.758   0.758   0.758   0.758   0.758   0.758   0.758   0.758   0.758   0.758   0.758   0.758   0.758   0.758   0.758   0.758   0.758   0.758   0.758   0.758   0.758
    62.83    0.758   0.758   0.758   0.758   0.758   0.758   0.758   0.758   0.758   0.758   0.758   0.758   0.758   0.758   0.758   0.758   0.758   0.758   0.758   0.758   0.758   0.758   0.758   0.758   0.758   0.758   0.758   0.758   0.758   0.758   0.758
    57.40    0.758   0.758   0.758   0.758   0.758   0.758   0.758   0.758   0.758   0.758   0.758   0.758   0.758   0.758   0.758   0.758   0.758   0.758   0.758   0.758   0.758   0.758   0.758   0.758   0.758   0.758   0.758   0.758   0.758   0.758   0.758
    51.97    0.758   0.758   0.758   0.758   0.758   0.758   0.758   0.758   0.758   0.758   0.758   0.758   0.758   0.758   0.758   0.758   0.758   0.758   0.758   0.758   0.758   0.758   0.758   0.758   0.758   0.758   0.758   0.758   0.758   0.758   0.758
    46.53    0.758   0.758   0.758   0.758   0.758   0.758   0.758   0.758   0.758   0.758   0.758   0.758   0.758   0.758   0.758   0.758   0.758   0.758   0.758   0.758   0.758   0.758   0.758   0.758   0.758   0.758   0.758   0.758   0.758   0.758   0.758
    41.10    0.758   0.758   0.758   0.758   0.758   0.758   0.758   0.758   0.758   0.758   0.758   0.758   0.758   0.758   0.758   0.758   0.758   0.758   0.758   0.758   0.758   0.758   0.758   0.758   0.758   0.758   0.758   0.758   0.758   0.758   0.758
    35.67    0.758   0.758   0.758   0.758   0.758   0.758   0.758   0.758   0.758   0.758   0.758   0.758   0.758   0.758   0.758   0.758   0.758   0.758   0.758   0.758   0.758   0.758   0.758   0.758   0.758   0.758   0.758   0.758   0.758   0.758   0.758
    30.23    0.758   0.758   0.758   0.758   0.758   0.758   0.758   0.758   0.758   0.758   0.758   0.758   0.758   0.758   0.758   0.758   0.758   0.758   0.758   0.758   0.758   0.758   0.758   0.758   0.758   0.758   0.758   0.758   0.758   0.758   0.758
    24.80    0.758   0.758   0.758   0.758   0.758   0.758   0.758   0.758   0.758   0.758   0.758   0.758   0.758   0.758   0.758   0.758   0.758   0.758   0.758   0.758   0.758   0.758   0.758   0.758   0.758   0.758   0.758   0.758   0.758   0.758   0.758
    19.37    0.758   0.758   0.758   0.758   0.758   0.758   0.758   0.758   0.758   0.758   0.758   0.758   0.758   0.758   0.758   0.758   0.758   0.758   0.758   0.758   0.758   0.758   0.758   0.758   0.758   0.758   0.758   0.758   0.758   0.758   0.758
    13.93    0.758   0.758   0.758   0.758   0.758   0.758   0.758   0.758   0.758   0.758   0.758   0.758   0.758   0.758   0.758   0.758   0.758   0.758   0.758   0.758   0.758   0.758   0.758   0.758   0.758   0.758   0.758   0.758   0.758   0.758   0.758
     8.50    0.758   0.758   0.758   0.758   0.758   0.758   0.758   0.758   0.758   0.758   0.758   0.758   0.758   0.758   0.758   0.758   0.758   0.758   0.758   0.758   0.758   0.758   0.758   0.758   0.758   0.758   0.758   0.758   0.758   0.758   0.758

   Mean standard deviation across all grid points:
      u component:    0.904 m/s
      v component:    0.970 m/s
      w component:    0.758 m/s


U-component (X) statistics from the interpolated hub point:

   Mean =   7.0000 m/s
   TI   =  15.2394 %


Processing complete.  1.9531 CPU seconds used.
