
This summary file was generated by TurbSim (from OpenFAST-v4.1.2) on 29-Oct-2025 at 22:12:20.


Runtime Options:

   4433456  Random seed #1
    RANLUX  Type of random number generator
         F  Output binary HH turbulence parameters?
         F  Output formatted turbulence parameters?
         F  Output AeroDyn HH files?
         T  Output AeroDyn FF files?
         T  Output BLADED FF files?
         F  Output tower data?
         F  Output HAWC FF files?
         F  Output formatted FF files?
         F  Output coherent turbulence time step file?
 0 -  NONE  IEC turbulence models scaled to exact specified standard deviation


Turbine/Model Specifications:

        31  Vertical grid-point matrix dimension
        31  Horizontal grid-point matrix dimension
     0.050  Time step [seconds]
   600.000  Analysis time [seconds]
   600.000  Usable output time [seconds]
    90.000  Hub height [m]
   140.000  Grid height [m]
   140.000  Grid width [m]
     0.000  Vertical flow angle [degrees]
     0.000  Horizontal flow angle [degrees]


Meteorological Boundary Conditions:

    IECKAI  IEC Kaimal spectral model
         1  IEC standard: IEC 61400-1 Ed. 3: 2005
         A  IEC turbulence characteristic
       NTM  IEC Normal Turbulence Model
       N/A  IEC Extreme Turbulence Model (ETM) "c" parameter [m/s]
       PL   Wind profile type
    90.000  Reference height [m]
    17.000  Reference wind speed [m/s]
       N/A  Jet height [m]
     0.200  Power law exponent
     0.030  Surface roughness length [m]


Non-IEC Meteorological Boundary Conditions:

       N/A  Site latitude [degrees]
       N/A  Gradient Richardson number
       N/A  Friction or shear velocity [m/s]
       N/A  Mixing layer depth [m]
       N/A  Mean hub u'w' Reynolds stress
       N/A  Mean hub u'v' Reynolds stress
       N/A  Mean hub v'w' Reynolds stress


Spatial Coherence Models:

       IEC  u-component coherence model
      NONE  v-component coherence model
      NONE  w-component coherence model
(   12.000, 0.353E-03)  u-component coherence parameters
                   N/A  v-component coherence parameters
                   N/A  w-component coherence parameters
       N/A  Coherence exponent


You have requested that the following file(s) be generated:

   TurbSim.bts (AeroDyn/TurbSim full-field wind file)
   TurbSim.wnd (AeroDyn/BLADED full-field wnd file)


Turbulence Simulation Scaling Parameter Summary:

   Turbulence model used                            =  IEC Kaimal
   Turbulence characteristic                        =  A
   IEC turbulence type                              =  Normal Turbulence Model
   IEC standard                                     =  IEC 61400-1 Ed. 3: 2005
   Mean wind speed at hub height                    =   17.000 m/s
   Expected value of turbulence intensity at 15 m/s =   16.000%
   Characteristic value of standard deviation       =    2.936 m/s
   Turbulence scale                                 =   42.000 m
   u-component integral scale                       =  340.200 m
   Coherency scale                                  =  340.200 m
   Characteristic value of hub turbulence intensity =   17.271%
   Gradient Richardson number                       =    0.000

   Wind profile type                                =  Power law
   Power law exponent                               =    0.200
   Mean shear across rotor disk                     =    0.046 (m/s)/m
   Assumed rotor diameter                           =  140.000 m
   Surface roughness length                         =    0.030 m

   Nyquist frequency of turbulent wind field        =   10.000 Hz

   Number of time steps in the FFT                  =    12000
   Number of time steps output                      =    12000
   Number of points simulated                       =      961


Mean Flow Angles:

   Vertical   =   0.0 degrees
   Horizontal =   0.0 degrees

Mean Wind Speed Profile:

   Height    Wind Speed   Horizontal Angle  Vertical Angle  U-comp (X)   V-comp (Y)   W-comp (Z)
     (m)        (m/s)         (degrees)       (degrees)       (m/s)        (m/s)        (m/s)   
   ------    ----------   ----------------  --------------  ----------   ----------   ----------
    160.0       19.07            0.00            0.00         19.07         0.00         0.00
    155.3       18.96            0.00            0.00         18.96         0.00         0.00
    150.7       18.85            0.00            0.00         18.85         0.00         0.00
    146.0       18.73            0.00            0.00         18.73         0.00         0.00
    141.3       18.61            0.00            0.00         18.61         0.00         0.00
    136.7       18.48            0.00            0.00         18.48         0.00         0.00
    132.0       18.35            0.00            0.00         18.35         0.00         0.00
    127.3       18.22            0.00            0.00         18.22         0.00         0.00
    122.7       18.09            0.00            0.00         18.09         0.00         0.00
    118.0       17.95            0.00            0.00         17.95         0.00         0.00
    113.3       17.80            0.00            0.00         17.80         0.00         0.00
    108.7       17.65            0.00            0.00         17.65         0.00         0.00
    104.0       17.50            0.00            0.00         17.50         0.00         0.00
     99.3       17.34            0.00            0.00         17.34         0.00         0.00
     94.7       17.17            0.00            0.00         17.17         0.00         0.00
     90.0       17.00            0.00            0.00         17.00         0.00         0.00
     85.3       16.82            0.00            0.00         16.82         0.00         0.00
     80.7       16.63            0.00            0.00         16.63         0.00         0.00
     76.0       16.43            0.00            0.00         16.43         0.00         0.00
     71.3       16.23            0.00            0.00         16.23         0.00         0.00
     66.7       16.01            0.00            0.00         16.01         0.00         0.00
     62.0       15.78            0.00            0.00         15.78         0.00         0.00
     57.3       15.53            0.00            0.00         15.53         0.00         0.00
     52.7       15.27            0.00            0.00         15.27         0.00         0.00
     48.0       14.99            0.00            0.00         14.99         0.00         0.00
     43.3       14.69            0.00            0.00         14.69         0.00         0.00
     38.7       14.36            0.00            0.00         14.36         0.00         0.00
     34.0       13.99            0.00            0.00         13.99         0.00         0.00
     29.3       13.59            0.00            0.00         13.59         0.00         0.00
     24.7       13.12            0.00            0.00         13.12         0.00         0.00
     20.0       12.58            0.00            0.00         12.58         0.00         0.00


Harvested Random Seeds after Generation of the Random Numbers:

    160727250 K 1
            0 K 2
