
This summary file was generated by TurbSim (from OpenFAST-v4.1.2) on 23-Feb-2026 at 17:04:46.


Runtime Options:

-908625248  Random seed #1
    RANLUX  Type of random number generator
         F  Output binary HH turbulence parameters?
         F  Output formatted turbulence parameters?
         F  Output AeroDyn HH files?
         T  Output AeroDyn FF files?
         F  Output BLADED FF files?
         F  Output tower data?
         F  Output HAWC FF files?
         T  Output formatted FF files?
         F  Output coherent turbulence time step file?
 0 -  NONE  IEC turbulence models scaled to exact specified standard deviation


Turbine/Model Specifications:

        30  Vertical grid-point matrix dimension
       113  Horizontal grid-point matrix dimension
     1.000  Time step [seconds]
    90.000  Analysis time [seconds]
    90.000  Usable output time [seconds]
   150.000  Hub height [m]
   300.000  Grid height [m]
  1134.000  Grid width [m]
     0.000  Vertical flow angle [degrees]
     8.000  Horizontal flow angle [degrees]


Meteorological Boundary Conditions:

    IECKAI  IEC Kaimal spectral model
         1  IEC standard: IEC 61400-1 Ed. 3: 2005
         A  IEC turbulence characteristic
       NTM  IEC Normal Turbulence Model
       N/A  IEC Extreme Turbulence Model (ETM) "c" parameter [m/s]
       PL   Wind profile type
    90.000  Reference height [m]
     7.000  Reference wind speed [m/s]
       N/A  Jet height [m]
     0.200  Power law exponent
     0.030  Surface roughness length [m]


Non-IEC Meteorological Boundary Conditions:

       N/A  Site latitude [degrees]
       N/A  Gradient Richardson number
       N/A  Friction or shear velocity [m/s]
       N/A  Mixing layer depth [m]
       N/A  Mean hub u'w' Reynolds stress
       N/A  Mean hub u'v' Reynolds stress
       N/A  Mean hub v'w' Reynolds stress


Spatial Coherence Models:

       IEC  u-component coherence model
      NONE  v-component coherence model
      NONE  w-component coherence model
(   12.000, 0.353E-03)  u-component coherence parameters
                   N/A  v-component coherence parameters
                   N/A  w-component coherence parameters
       N/A  Coherence exponent


You have requested that the following file(s) be generated:

   Generator_Ambient/TurbSim2.bts (AeroDyn/TurbSim full-field wind file)
   Generator_Ambient/TurbSim2.u (formatted full-field U-component file)
   Generator_Ambient/TurbSim2.v (formatted full-field V-component file)
   Generator_Ambient/TurbSim2.w (formatted full-field W-component file)


Turbulence Simulation Scaling Parameter Summary:

   Turbulence model used                            =  IEC Kaimal
   Turbulence characteristic                        =  A
   IEC turbulence type                              =  Normal Turbulence Model
   IEC standard                                     =  IEC 61400-1 Ed. 3: 2005
   Mean wind speed at hub height                    =    7.753 m/s
   Expected value of turbulence intensity at 15 m/s =   16.000%
   Characteristic value of standard deviation       =    1.826 m/s
   Turbulence scale                                 =   42.000 m
   u-component integral scale                       =  340.200 m
   Coherency scale                                  =  340.200 m
   Characteristic value of hub turbulence intensity =   23.557%
   Gradient Richardson number                       =    0.000

   Wind profile type                                =  Power law
   Power law exponent                               =    0.200
   Mean shear across rotor disk                     =    0.030 (m/s)/m
   Assumed rotor diameter                           =  300.000 m
   Surface roughness length                         =    0.030 m

   Nyquist frequency of turbulent wind field        =    0.500 Hz

   Number of time steps in the FFT                  =       90
   Number of time steps output                      =       90
   Number of points simulated                       =     3391


Mean Flow Angles:

   Vertical   =   0.0 degrees
   Horizontal =   8.0 degrees

Mean Wind Speed Profile:

   Height    Wind Speed   Horizontal Angle  Vertical Angle  U-comp (X)   V-comp (Y)   W-comp (Z)
     (m)        (m/s)         (degrees)       (degrees)       (m/s)        (m/s)        (m/s)   
   ------    ----------   ----------------  --------------  ----------   ----------   ----------
    300.0        8.91            8.00            0.00          8.82         1.24         0.00
    289.7        8.84            8.00            0.00          8.76         1.23         0.00
    279.3        8.78            8.00            0.00          8.69         1.22         0.00
    269.0        8.71            8.00            0.00          8.63         1.21         0.00
    258.6        8.65            8.00            0.00          8.56         1.20         0.00
    248.3        8.58            8.00            0.00          8.49         1.19         0.00
    237.9        8.50            8.00            0.00          8.42         1.18         0.00
    227.6        8.43            8.00            0.00          8.35         1.17         0.00
    217.2        8.35            8.00            0.00          8.27         1.16         0.00
    206.9        8.27            8.00            0.00          8.19         1.15         0.00
    196.6        8.18            8.00            0.00          8.10         1.14         0.00
    186.2        8.10            8.00            0.00          8.02         1.13         0.00
    175.9        8.00            8.00            0.00          7.93         1.11         0.00
    165.5        7.91            8.00            0.00          7.83         1.10         0.00
    155.2        7.81            8.00            0.00          7.73         1.09         0.00
    150.0        7.75            8.00            0.00          7.68         1.08         0.00
    144.8        7.70            8.00            0.00          7.62         1.07         0.00
    134.5        7.59            8.00            0.00          7.51         1.06         0.00
    124.1        7.47            8.00            0.00          7.39         1.04         0.00
    113.8        7.34            8.00            0.00          7.26         1.02         0.00
    103.4        7.20            8.00            0.00          7.13         1.00         0.00
     93.1        7.05            8.00            0.00          6.98         0.98         0.00
     82.8        6.88            8.00            0.00          6.82         0.96         0.00
     72.4        6.70            8.00            0.00          6.64         0.93         0.00
     62.1        6.50            8.00            0.00          6.44         0.90         0.00
     51.7        6.27            8.00            0.00          6.20         0.87         0.00
     41.4        5.99            8.00            0.00          5.93         0.83         0.00
     31.0        5.66            8.00            0.00          5.60         0.79         0.00
     20.7        5.22            8.00            0.00          5.17         0.73         0.00
     10.3        4.54            8.00            0.00          4.50         0.63         0.00
      0.0        0.45            8.00            0.00          0.45         0.06         0.00


Harvested Random Seeds after Generation of the Random Numbers:

      4253511 K 1
            0 K 2


Hub-Height Simulated Turbulence Statistical Summary:

   Type of Wind        Min (m/s)   Mean (m/s)    Max (m/s)  Sigma (m/s)       TI (%)
   ----------------    ---------   ----------    ---------  -----------       ------
   Longitudinal (u)         4.07         7.75        10.81        1.536       19.809
   Lateral (v)             -2.43        -0.00         2.64        1.199       15.470
   Vertical (w)            -2.21        -0.00         1.76        0.781       10.068
   U component              3.95         7.68        10.83        1.618       21.071
   V component             -1.14         1.08         3.51        1.086       14.150
   W component             -2.21        -0.00         1.76        0.781       10.167
   Horizontal (U&V)         4.12         7.84        10.85        1.539       19.618
   Total                    4.13         7.89        10.88        1.518       19.248

                       Min Reynolds     Mean Reynolds    Max Reynolds    Correlation
   Product             Stress (m/s)^2   Stress (m/s)^2   Stress (m/s)^2  Coefficient
   ----------------    --------------   --------------   --------------  -----------
   u'w'                     -3.404             0.181             2.658         0.151
   u'v'                     -5.606            -1.002             2.251        -0.544
   v'w'                     -3.533            -0.340             1.063        -0.363


   Friction Velocity (Ustar)  =      0.426 m/s
   Maximum Instantaneous TKE  =      6.973 (m/s)^2
   Maximum Instantaneous CTKE =      2.818 (m/s)^2


Grid Point Variance Summary:

   Y-coord -567.00 -556.88 -546.75 -536.62 -526.50 -516.38 -506.25 -496.12 -486.00 -475.88 -465.75 -455.62 -445.50 -435.38 -425.25 -415.12 -405.00 -394.88 -384.75 -374.62 -364.50 -354.38 -344.25 -334.12 -324.00 -313.88 -303.75 -293.62 -283.50 -273.38 -263.25 -253.12 -243.00 -232.88 -222.75 -212.62 -202.50 -192.38 -182.25 -172.12 -162.00 -151.88 -141.75 -131.62 -121.50 -111.38 -101.25  -91.12  -81.00  -70.88  -60.75  -50.62  -40.50  -30.38  -20.25  -10.12    0.00   10.12   20.25   30.38   40.50   50.62   60.75   70.88   81.00   91.12  101.25  111.38  121.50  131.62  141.75  151.88  162.00  172.12  182.25  192.38  202.50  212.62  222.75  232.88  243.00  253.12  263.25  273.38  283.50  293.62  303.75  313.88  324.00  334.12  344.25  354.38  364.50  374.62  384.75  394.88  405.00  415.12  425.25  435.38  445.50  455.62  465.75  475.88  486.00  496.12  506.25  516.38  526.50  536.62  546.75  556.88  567.00

   Height   Standard deviation at grid points for the u component:
   300.00    1.293   0.975   1.111   1.169   1.151   0.983   1.001   1.331   1.378   1.199   1.255   1.497   1.584   1.344   1.601   1.164   1.229   1.565   1.450   1.178   1.190   1.332   1.217   1.184   0.932   0.888   1.077   1.226   0.884   0.949   1.163   1.318   1.368   1.457   1.156   1.544   1.247   1.076   1.020   1.007   1.242   1.096   1.038   1.135   1.014   1.146   1.282   0.654   0.702   0.786   1.014   0.892   0.947   1.090   1.219   1.299   1.152   1.049   0.798   0.918   0.880   0.948   1.076   0.819   0.908   1.056   1.169   1.020   0.960   0.986   1.389   1.493   1.358   0.993   1.070   1.217   1.235   1.382   1.549   1.716   1.479   1.495   1.363   1.155   0.992   1.090   1.473   1.338   1.403   1.413   1.705   1.970   1.663   1.695   1.566   1.193   0.890   0.910   1.259   1.163   0.967   1.004   1.364   0.980   1.454   1.477   2.030   1.968   1.538   1.464   1.545   1.665   1.316
   289.66    1.171   0.934   1.105   1.044   1.075   0.845   0.722   1.262   1.327   1.188   1.442   1.292   1.391   1.432   1.207   1.336   1.372   1.366   1.527   1.557   1.318   1.033   1.370   1.085   0.696   1.009   1.130   0.957   1.135   0.976   1.324   1.270   1.248   1.183   1.229   1.490   1.575   1.640   1.300   1.122   0.916   0.980   1.150   1.149   1.013   1.159   0.944   0.859   1.023   1.025   1.023   0.847   0.975   1.267   1.408   1.371   1.249   0.965   0.901   0.848   0.966   0.818   0.896   0.970   0.774   0.754   0.928   0.818   0.909   1.237   1.320   1.322   0.881   1.041   0.879   1.094   1.529   1.598   1.294   1.580   1.568   1.115   0.924   0.882   1.081   0.894   1.277   1.252   0.968   0.930   1.238   1.669   1.221   1.540   1.416   1.209   1.106   1.259   1.476   1.371   0.973   1.179   1.365   1.106   1.546   1.591   2.171   2.015   1.852   1.661   1.565   1.351   1.391
   279.31    1.058   1.106   1.098   1.167   0.925   1.118   1.272   1.357   1.533   1.330   1.443   1.616   1.560   1.417   1.218   1.367   1.544   1.471   1.911   1.765   1.602   1.336   1.173   1.162   1.390   1.277   1.077   0.921   1.067   0.948   1.111   1.377   1.528   1.343   1.710   1.383   1.416   1.358   1.643   1.439   1.065   1.292   1.197   1.006   1.157   1.297   0.957   1.030   0.791   0.828   0.865   0.981   1.205   1.295   1.112   1.310   1.522   1.271   1.175   1.201   1.061   1.043   1.034   0.893   0.901   1.003   1.023   1.062   1.037   1.093   1.122   1.265   0.975   1.086   0.946   1.104   1.410   1.415   1.352   1.347   1.245   1.137   1.033   0.895   1.053   1.123   1.199   1.202   1.085   1.297   1.197   1.331   1.635   1.496   1.267   1.019   1.052   1.564   1.515   1.074   0.869   1.166   1.100   1.227   1.578   1.974   2.121   1.735   1.967   2.169   1.801   1.820   1.329
   268.97    1.137   1.375   1.025   1.263   1.022   0.921   1.264   1.591   1.575   1.261   1.258   1.061   1.411   1.271   1.068   1.471   1.659   1.516   1.918   2.050   1.617   1.200   1.119   1.126   1.321   1.310   1.240   0.930   0.960   0.929   0.876   1.314   1.142   1.691   1.719   1.292   1.416   1.377   1.418   1.465   1.326   1.342   1.057   1.360   1.326   1.271   1.435   1.193   1.247   1.070   0.907   1.122   1.271   0.828   1.040   1.356   1.295   1.040   0.903   1.037   1.310   1.226   0.997   0.982   0.958   0.875   1.016   1.057   0.950   1.031   0.855   0.898   0.959   1.038   1.178   1.142   1.113   1.118   1.119   1.196   0.917   1.015   0.853   1.022   1.004   1.431   1.386   1.720   1.778   1.256   1.263   1.282   1.388   1.335   1.140   1.183   1.194   1.393   1.583   1.145   1.092   1.251   0.974   1.144   1.323   1.651   1.931   1.886   1.975   1.879   1.653   1.556   1.400
   258.62    0.977   1.233   1.370   1.341   1.377   1.061   1.499   1.398   1.422   1.245   1.013   0.974   1.028   1.252   1.282   1.359   1.654   1.539   1.666   1.789   1.706   1.306   1.277   1.135   1.242   1.058   0.958   1.017   1.014   1.303   1.082   1.348   1.201   1.457   1.403   1.350   1.009   1.376   1.531   1.110   1.004   1.390   1.271   1.367   1.125   0.970   1.280   1.013   1.297   1.254   0.808   0.925   1.126   0.758   1.174   1.207   1.667   1.658   1.064   1.225   1.245   1.208   1.102   1.134   0.951   1.097   1.174   0.996   0.957   1.044   1.190   0.962   1.123   1.124   1.407   1.344   1.288   1.018   1.147   1.092   0.852   1.042   0.900   1.086   1.168   1.345   1.560   1.476   1.330   1.483   1.336   1.116   1.073   1.097   1.096   0.746   1.031   1.189   1.263   1.299   1.120   1.031   0.927   1.231   1.270   1.771   1.984   2.040   1.747   1.450   1.104   1.034   0.967
   248.28    1.170   1.153   1.075   0.964   0.930   1.099   1.604   1.497   1.358   1.240   1.097   1.076   1.038   1.341   1.157   1.172   1.315   1.337   1.433   1.449   1.400   1.356   1.344   0.991   0.857   0.850   0.924   1.353   1.558   1.348   1.454   1.049   1.364   1.147   1.086   0.911   1.447   1.069   1.249   1.288   1.336   1.339   1.241   1.344   1.036   1.332   1.699   1.179   1.309   1.393   1.237   1.357   1.358   1.259   0.975   1.259   1.309   1.543   1.156   1.084   1.173   1.021   1.115   1.206   1.277   1.324   1.721   1.732   1.281   1.364   1.348   1.190   0.914   0.919   1.306   1.355   1.367   1.260   1.146   1.027   1.094   0.913   0.947   1.228   1.364   1.297   1.614   1.249   1.505   1.144   1.038   1.001   1.264   0.934   1.228   1.174   1.084   1.410   1.105   0.950   1.154   0.972   1.318   1.265   1.317   2.021   1.941   1.776   1.717   1.291   0.974   1.220   1.310
   237.93    0.904   1.149   1.290   1.073   0.946   1.120   1.409   1.534   1.592   1.662   1.735   1.246   0.992   1.168   1.079   1.137   1.019   1.085   1.031   1.034   1.224   1.172   1.151   1.141   1.250   1.164   1.034   1.258   1.470   1.575   1.173   1.202   1.183   1.108   0.836   0.869   1.145   1.496   1.083   1.609   1.810   1.196   1.007   1.369   1.599   1.701   1.529   1.076   1.394   1.641   1.254   1.427   1.224   1.106   0.997   0.951   1.203   1.094   1.230   1.284   1.200   0.958   1.212   1.277   1.482   1.330   1.642   1.572   1.247   1.335   1.424   1.019   1.052   1.227   1.083   1.424   1.503   1.619   1.397   1.135   0.990   0.988   1.160   1.072   1.426   1.517   1.636   1.618   1.755   1.296   1.116   1.177   1.124   1.127   1.032   0.819   1.157   1.559   1.540   1.195   1.034   1.369   1.602   1.402   1.962   2.178   2.110   1.800   1.466   1.259   1.235   1.220   1.376
   227.59    1.015   1.158   1.197   0.928   1.185   1.427   1.150   1.304   1.304   1.223   1.393   1.477   1.358   0.955   1.159   1.298   1.445   0.942   1.042   1.277   1.387   1.224   1.079   1.053   1.198   1.551   1.033   1.319   1.475   1.309   1.207   1.359   0.927   1.042   0.885   0.951   1.253   1.125   1.599   1.588   1.589   1.120   1.065   1.021   1.373   1.577   1.220   1.140   1.370   1.269   1.271   1.085   1.077   0.965   1.176   1.083   1.253   1.394   1.080   1.026   1.081   0.892   1.013   1.032   1.377   1.731   1.812   1.180   0.995   0.945   1.121   1.379   1.024   0.956   1.212   1.227   1.334   1.431   1.168   1.111   0.893   0.831   1.066   1.123   1.257   0.890   1.126   1.375   1.522   1.296   1.116   0.931   0.987   1.192   1.169   1.040   1.375   1.479   1.784   1.315   1.280   1.497   1.533   1.538   1.754   1.811   1.597   1.663   1.719   1.708   0.938   1.115   1.061
   217.24    1.552   1.249   1.076   0.793   0.921   1.161   1.055   1.181   1.302   1.223   1.230   1.342   1.399   1.030   1.120   1.154   1.057   1.135   1.384   1.201   1.063   1.095   1.028   0.936   1.303   1.392   1.424   1.594   1.537   1.250   1.026   1.061   1.172   0.716   0.897   0.867   1.191   1.058   1.527   1.688   1.556   1.454   1.058   1.175   0.946   1.269   1.358   1.036   1.426   1.079   0.984   0.970   1.189   1.202   1.405   1.505   1.157   1.088   1.359   1.381   1.063   0.845   1.112   0.946   1.236   1.579   1.724   1.375   1.101   1.084   1.044   1.244   0.955   1.058   1.154   0.960   1.127   0.980   1.053   0.901   1.202   1.028   0.893   1.003   0.906   0.952   0.868   1.158   1.151   1.294   0.934   0.991   0.947   1.126   1.064   1.340   1.851   2.091   1.648   1.782   1.850   1.601   1.605   1.622   1.470   1.301   1.279   1.534   1.448   1.432   0.890   1.023   0.977
   206.90    1.574   1.492   1.449   1.054   0.952   0.982   1.210   1.279   1.238   1.112   1.120   1.345   1.395   1.177   0.947   1.120   0.686   1.048   1.231   1.321   1.144   0.836   0.987   1.132   1.437   1.112   1.234   1.415   1.400   0.988   0.926   1.108   1.171   1.328   1.246   1.153   1.170   1.636   1.518   1.517   1.301   1.190   1.542   1.176   1.229   1.174   1.091   1.026   1.186   1.295   0.939   1.191   1.190   1.625   1.354   1.122   1.121   1.349   1.484   1.676   1.523   1.324   1.088   0.945   1.139   1.334   1.458   1.369   1.213   1.183   1.167   1.176   1.027   0.978   1.132   1.308   1.216   1.180   1.369   1.464   1.024   0.960   1.238   1.489   1.378   0.782   0.846   1.023   1.253   1.169   0.909   1.124   1.230   1.144   1.050   1.660   1.949   1.690   1.725   1.884   1.434   1.466   1.436   1.455   0.991   1.021   0.908   1.066   1.145   1.019   1.082   0.974   1.149
   196.55    1.423   1.208   1.222   1.184   0.846   1.025   1.367   1.161   0.971   1.196   1.112   1.268   1.463   1.273   1.117   0.958   0.867   1.002   0.996   1.263   0.992   0.793   0.891   1.081   1.291   1.188   1.034   1.117   1.335   1.215   1.008   0.972   1.302   1.003   1.196   1.500   1.640   1.597   1.412   1.506   1.716   1.752   1.508   1.347   1.019   1.117   0.988   0.859   0.873   0.805   0.766   1.183   1.554   1.627   1.268   1.112   1.298   1.375   1.169   1.664   1.598   1.461   0.976   0.980   1.163   1.422   1.348   1.141   0.974   0.966   1.262   1.443   1.137   0.975   1.154   1.061   1.317   1.346   1.491   1.231   1.134   1.084   1.110   1.238   1.263   0.870   1.200   1.013   1.042   1.152   0.883   1.265   1.197   1.407   1.750   1.633   1.862   2.027   1.464   1.636   1.431   1.264   1.155   1.499   1.127   0.883   1.005   1.016   0.971   1.077   0.959   0.954   1.172
   186.21    1.025   1.070   0.939   0.990   0.813   1.098   1.161   1.139   1.216   1.051   1.195   1.191   1.364   0.959   1.089   0.929   0.910   0.874   0.924   1.159   1.188   0.995   0.963   1.173   1.099   1.068   1.063   1.420   1.152   1.000   1.019   0.926   1.067   0.959   1.287   1.772   1.808   1.429   1.754   1.845   1.660   1.498   1.337   0.935   1.030   0.994   1.012   1.001   0.850   1.022   1.005   1.322   1.285   1.289   1.092   1.158   1.421   1.742   1.774   1.570   1.420   1.231   1.029   0.875   1.293   1.540   1.187   0.859   1.192   0.913   1.322   1.241   1.097   0.962   0.982   1.133   1.311   1.565   1.573   1.286   1.589   1.701   1.067   1.047   1.195   1.024   1.197   1.298   0.773   0.922   1.048   1.356   1.217   1.294   1.768   1.922   1.819   1.792   1.505   1.420   1.344   1.019   1.150   1.383   1.341   0.883   1.087   1.091   0.861   1.184   1.426   1.644   1.187
   175.86    1.264   0.968   0.951   0.876   1.206   1.518   1.306   1.170   1.340   1.116   1.139   1.069   1.279   1.331   1.373   1.218   1.122   0.953   1.232   1.330   1.207   1.041   1.060   1.042   0.912   1.018   1.038   1.194   1.226   0.839   1.023   1.116   1.044   0.910   1.222   1.427   1.601   1.397   1.580   1.544   1.532   1.600   1.270   1.089   1.141   0.822   0.982   0.903   0.917   0.795   1.116   1.331   1.539   1.102   1.048   1.177   1.257   1.491   1.290   1.266   1.142   0.920   0.869   1.123   1.363   1.327   1.343   1.144   1.205   1.437   1.710   1.294   0.903   0.872   0.889   0.988   0.891   0.946   1.236   1.070   1.368   1.478   1.350   1.307   1.079   0.759   1.128   1.193   1.193   0.915   1.054   1.019   1.086   1.406   1.625   1.627   1.423   1.546   1.100   1.229   0.991   0.852   0.952   1.037   1.046   0.851   0.993   0.847   0.804   1.233   1.406   1.504   1.377
   165.52    1.136   0.872   0.903   1.053   0.932   1.396   1.562   1.698   1.483   1.718   1.231   0.996   1.118   1.169   1.056   1.298   1.379   1.139   1.488   1.516   1.032   1.037   0.907   1.112   1.044   0.886   1.062   0.919   0.973   1.238   1.290   1.100   0.928   1.116   1.258   1.383   1.443   1.547   1.243   1.489   1.457   1.422   1.149   1.181   1.291   0.842   0.850   0.703   0.899   1.106   0.926   1.369   1.071   1.244   1.224   1.361   1.635   1.351   1.236   1.069   1.019   0.880   1.037   1.264   1.724   1.317   1.237   1.372   1.399   1.536   1.655   1.400   1.072   1.195   1.011   0.850   0.889   1.049   1.054   1.237   1.406   0.988   1.268   1.447   1.089   1.071   1.033   1.341   1.263   1.099   1.077   1.368   1.522   1.360   1.529   1.318   1.083   1.095   1.029   1.164   1.010   1.044   1.196   0.939   1.225   1.080   1.178   1.029   0.861   0.999   1.361   1.288   1.438
   155.17    1.176   1.107   0.963   0.838   0.776   1.233   1.707   1.654   1.821   1.688   1.291   1.139   1.171   1.000   1.161   1.220   1.316   1.300   1.334   1.134   0.979   0.959   0.957   1.025   1.358   0.972   1.033   0.939   0.859   0.992   1.001   0.977   0.968   0.918   1.236   1.277   1.391   1.348   1.367   1.510   1.685   1.262   1.093   1.332   1.536   1.089   1.288   1.213   0.950   1.087   1.093   1.325   1.423   0.940   0.920   1.339   1.540   1.558   1.335   1.154   1.200   0.927   0.972   1.079   1.516   1.494   1.657   1.595   1.465   1.442   1.396   1.241   1.270   1.146   1.119   1.328   1.182   1.057   0.837   1.272   1.430   1.059   0.874   1.255   1.350   1.120   1.150   1.235   1.351   0.972   1.055   1.295   1.563   1.456   1.288   1.040   1.147   0.987   1.106   1.011   1.185   1.007   1.215   1.136   1.016   1.262   0.944   1.042   1.014   1.134   1.225   1.195   1.595
   144.83    1.293   1.412   0.854   0.795   0.890   1.253   1.376   1.537   1.421   1.633   1.583   0.937   1.177   0.964   1.434   0.951   1.332   1.164   0.953   0.908   1.054   1.321   1.057   1.327   1.277   1.151   0.992   1.148   1.189   0.932   1.172   1.211   1.092   0.891   1.245   1.437   1.156   1.242   1.133   1.055   1.278   1.471   1.118   1.400   1.355   1.526   1.246   1.030   0.992   1.097   0.985   1.262   1.325   1.259   0.960   1.347   1.515   1.605   1.310   1.014   1.094   1.027   1.069   0.994   1.047   1.464   1.488   1.557   1.177   1.217   1.382   1.406   1.206   1.646   1.665   1.528   0.896   1.174   1.021   1.130   1.226   1.325   1.500   1.064   1.050   0.979   0.985   1.302   1.074   1.292   1.335   1.517   1.493   1.220   1.350   1.004   1.320   0.888   0.858   0.987   1.094   1.208   1.086   0.998   0.964   1.086   1.012   1.042   1.017   1.302   1.288   1.462   1.620
   134.48    0.905   1.223   1.268   1.036   1.154   1.181   1.179   1.181   1.188   1.365   1.425   1.207   0.773   0.984   1.174   1.055   1.170   0.916   1.107   1.355   1.176   1.296   1.305   1.086   1.070   0.936   1.145   1.317   1.293   1.072   1.056   1.241   0.887   0.903   1.081   1.332   1.213   1.088   1.276   1.361   1.116   1.262   1.166   1.131   1.148   1.349   1.573   1.290   1.010   1.016   1.152   0.994   1.281   1.245   1.061   1.365   1.413   1.461   1.472   1.061   1.049   1.234   1.584   1.247   1.503   1.422   1.421   1.099   1.244   1.052   1.045   1.624   1.568   1.970   1.801   1.449   1.248   1.394   1.022   0.963   1.120   1.319   1.170   1.093   1.105   1.205   0.945   1.183   1.184   1.146   1.339   1.286   1.177   1.006   1.020   1.034   1.148   1.096   0.902   1.003   0.997   1.091   1.036   1.305   1.079   1.059   0.874   1.090   1.078   1.143   1.413   1.393   1.436
   124.14    1.378   1.099   1.217   1.185   1.258   1.192   1.337   1.522   1.121   1.598   1.543   1.380   1.331   1.003   0.965   0.799   0.918   0.961   1.107   1.289   1.209   1.274   0.945   1.101   0.784   1.101   1.141   1.161   0.871   1.053   0.753   1.026   1.069   0.945   1.001   0.930   0.960   0.980   0.967   1.052   1.308   1.064   1.132   1.653   1.592   1.678   1.473   1.303   1.518   1.158   1.285   1.390   1.205   1.482   1.265   1.207   1.264   1.313   1.266   1.282   1.269   0.924   1.224   1.446   1.416   1.510   1.217   1.350   1.165   0.881   1.105   1.399   1.925   2.077   2.019   1.854   2.095   1.562   1.366   1.113   0.982   1.037   1.094   0.835   1.067   1.044   1.039   1.189   1.003   1.049   1.016   1.058   1.179   1.019   0.866   1.006   1.080   1.282   1.274   1.054   1.035   1.102   1.317   1.188   1.040   1.141   1.446   1.123   1.354   1.096   0.920   1.059   1.103
   113.79    1.236   1.273   1.212   1.073   0.873   1.155   1.194   1.317   1.230   1.241   1.423   1.522   1.300   1.101   1.064   0.800   0.964   1.036   0.866   1.243   1.321   1.069   1.193   1.018   0.960   1.186   1.102   1.184   1.261   0.952   0.877   0.747   0.955   0.914   1.080   0.933   1.204   0.861   0.905   1.100   1.004   1.144   1.435   2.091   1.813   1.659   1.449   1.936   1.837   1.355   1.356   1.360   1.167   1.017   1.196   1.230   1.122   1.332   1.463   1.081   0.986   1.217   1.092   1.133   1.170   1.107   1.295   1.473   1.333   1.328   1.585   1.839   1.838   2.078   1.569   1.485   1.988   1.835   1.456   1.224   0.986   0.833   0.773   1.035   1.213   1.189   1.160   1.229   0.891   1.063   1.088   1.093   0.867   1.069   0.872   1.215   1.354   1.322   1.113   1.131   1.034   1.076   1.191   1.231   0.943   1.028   1.184   1.203   1.125   1.182   0.966   0.847   0.917
   103.45    1.041   1.037   1.023   0.959   0.834   1.130   0.944   1.093   0.852   0.992   1.282   1.133   1.108   1.165   1.026   1.026   1.129   0.881   0.986   0.961   0.991   1.055   1.376   1.256   0.839   1.084   1.288   1.218   1.264   1.116   0.875   0.799   1.065   0.826   0.872   1.414   1.512   1.130   1.232   1.340   1.587   1.788   1.750   2.097   2.158   1.723   2.070   1.909   1.913   1.536   1.751   1.927   1.606   1.528   0.994   1.187   1.309   1.166   1.122   0.987   0.941   0.907   1.178   1.014   1.134   1.360   0.955   1.184   1.057   1.231   1.227   1.455   1.914   1.592   1.781   1.807   1.610   1.777   1.598   1.595   1.019   0.988   1.308   1.254   1.022   1.085   0.966   1.040   0.755   0.997   1.041   1.081   0.859   1.184   1.063   1.105   1.213   1.032   0.989   0.971   1.180   1.202   1.250   1.405   1.309   0.848   0.984   0.983   0.928   0.851   0.830   0.858   0.941
    93.10    1.080   1.052   1.036   0.944   1.049   1.118   0.946   0.921   0.861   1.156   1.276   0.998   0.882   0.794   0.876   0.884   1.023   0.844   0.930   0.991   1.103   1.384   1.410   1.202   1.010   1.276   1.343   1.461   1.107   0.972   1.039   1.173   1.184   0.947   1.118   1.417   1.640   1.504   1.200   1.249   1.721   1.402   1.820   1.836   1.736   2.076   2.278   2.145   1.715   1.563   1.693   1.731   1.728   1.201   1.075   0.926   1.076   1.019   1.099   0.816   0.880   0.874   0.958   0.872   1.054   0.934   0.785   1.130   1.256   1.320   1.154   1.342   1.770   1.754   1.488   1.445   1.071   1.477   1.673   1.552   1.041   0.996   1.226   0.978   1.046   0.936   0.878   0.931   1.258   0.844   0.821   0.921   1.094   1.288   1.150   1.091   0.916   0.909   0.953   1.152   1.151   1.261   1.030   1.439   1.561   1.203   1.268   1.146   0.967   0.913   0.693   0.993   0.880
    82.76    1.176   1.030   1.040   1.055   0.900   1.146   1.209   0.841   0.921   1.055   1.093   1.066   0.895   1.067   0.930   0.925   0.943   1.204   1.180   1.213   1.361   1.397   1.354   1.101   1.162   1.370   1.318   1.192   1.007   1.183   0.962   0.961   1.310   1.237   1.106   1.178   1.537   1.583   1.188   1.099   1.490   1.796   1.827   1.323   1.683   2.016   1.788   2.071   1.971   1.858   1.809   1.085   1.430   1.409   1.000   0.880   0.901   0.957   0.877   1.072   0.970   0.816   1.047   0.971   1.082   1.136   1.162   1.239   1.297   1.103   0.898   1.021   1.400   1.628   1.253   1.153   1.155   1.448   1.581   1.136   0.770   0.868   1.159   1.330   0.695   0.884   1.038   1.313   1.291   0.988   1.187   0.915   1.220   1.263   1.050   1.164   1.327   1.424   1.102   1.414   1.248   0.892   1.135   1.604   1.739   1.187   1.546   1.766   1.567   1.304   1.163   1.105   0.890
    72.41    1.074   0.853   0.880   1.090   1.112   1.386   1.038   1.092   1.168   1.328   1.710   1.232   1.147   0.964   0.896   0.858   0.792   0.931   1.148   1.418   1.454   1.576   1.224   1.267   1.468   1.491   1.072   0.844   1.049   1.319   1.198   1.240   1.340   0.971   1.189   0.972   1.394   1.246   1.038   1.347   1.533   1.792   1.759   1.460   1.766   1.763   1.880   2.195   1.869   1.821   1.322   0.954   1.201   1.320   0.977   1.138   1.247   1.085   0.857   0.969   1.047   1.035   1.157   1.331   1.149   1.412   1.615   1.726   1.190   1.069   0.811   1.218   1.142   1.164   1.457   1.474   1.124   1.231   1.360   1.391   1.176   1.054   1.388   1.275   0.770   0.918   0.892   1.299   1.251   0.996   0.988   1.364   1.371   1.097   0.952   0.953   1.034   1.184   1.513   1.122   1.221   0.912   1.260   1.630   1.701   1.494   1.611   1.538   1.456   1.218   1.044   0.887   1.093
    62.07    1.268   1.230   1.037   1.130   1.319   1.440   0.960   0.945   1.093   1.491   1.530   1.525   1.320   1.029   0.915   1.002   1.141   1.105   1.347   1.487   1.257   1.292   1.388   1.160   1.246   1.284   1.135   1.143   1.186   1.080   1.038   1.298   1.371   1.076   1.319   1.009   1.392   1.148   1.591   1.137   1.363   1.346   1.593   1.673   1.252   1.739   2.105   2.276   2.186   1.539   1.221   1.229   1.103   1.200   1.064   1.094   1.040   0.847   1.069   0.800   1.142   1.077   1.415   1.446   1.635   1.193   1.364   1.398   0.944   1.098   1.129   1.303   1.300   1.130   1.205   1.103   1.280   1.113   1.091   1.095   0.903   0.976   1.215   1.439   1.195   1.080   0.777   1.014   1.242   0.965   0.892   1.109   0.959   1.026   0.940   0.953   1.351   1.225   1.340   1.254   0.935   1.237   1.055   1.257   1.612   1.500   1.274   1.246   1.000   1.111   1.087   1.063   1.047
    51.72    1.399   1.163   1.436   1.183   1.419   1.497   1.374   1.252   1.231   1.635   1.428   1.131   1.207   1.203   0.953   1.005   1.141   1.122   1.218   1.513   1.426   1.035   0.957   1.215   1.189   0.956   1.069   1.438   1.579   1.110   1.406   1.367   1.324   1.421   1.173   1.239   1.271   1.712   1.841   1.360   1.497   1.482   1.600   1.862   1.516   1.854   2.178   2.076   2.103   1.707   1.381   1.608   1.497   1.726   1.391   1.250   1.154   0.871   1.029   0.900   1.427   1.390   1.651   1.776   1.434   1.293   0.997   1.328   1.112   1.338   1.252   1.102   1.019   1.245   1.204   1.149   1.171   0.900   1.022   0.769   0.995   0.841   1.045   1.018   1.293   1.062   0.914   1.178   1.005   1.089   1.007   1.190   0.956   0.951   0.899   1.230   1.619   1.408   0.899   1.008   1.030   1.052   1.185   1.396   1.701   1.489   1.310   1.273   1.239   0.935   0.891   1.097   0.937
    41.38    1.423   1.479   1.606   1.690   1.264   1.279   1.185   1.501   1.603   1.854   1.671   1.339   1.344   1.384   1.149   1.295   1.309   1.033   1.276   1.305   1.552   1.354   1.497   1.469   1.182   1.512   1.673   1.638   1.382   1.102   1.108   1.281   1.169   1.446   1.710   1.517   1.599   1.987   1.648   1.655   1.278   1.580   1.660   1.958   1.727   1.786   2.282   2.147   2.244   2.130   2.092   1.380   1.535   1.676   1.274   0.895   1.143   1.004   1.031   1.219   1.388   1.639   1.354   1.742   1.764   1.183   1.112   1.406   1.832   1.398   1.172   1.286   1.441   1.219   1.017   1.019   1.244   1.223   0.972   0.898   0.977   1.164   1.035   0.797   0.981   0.905   0.897   1.024   1.142   1.055   1.277   1.319   1.239   0.965   1.282   1.341   1.228   1.419   1.043   1.020   0.753   1.092   1.391   1.474   1.385   1.517   1.369   1.292   1.292   1.114   1.187   1.287   0.874
    31.03    1.419   1.202   1.158   1.334   1.259   1.033   1.488   1.799   1.834   1.935   1.965   1.677   1.061   1.336   1.375   1.219   1.313   1.139   1.167   1.334   1.507   1.641   1.318   1.537   1.456   1.163   1.518   1.652   1.230   1.004   1.228   1.160   1.575   1.509   1.512   2.026   2.047   1.942   1.625   1.735   1.776   1.579   1.734   1.611   1.921   2.054   2.444   2.481   2.014   2.089   1.738   1.525   1.305   1.478   1.453   1.407   0.972   1.098   0.961   1.535   1.555   1.205   1.549   1.753   1.899   1.281   1.130   1.442   1.789   1.605   1.331   1.350   1.111   1.368   1.238   1.151   1.154   1.329   1.031   1.494   1.114   1.293   0.979   1.001   1.013   0.771   1.056   1.272   1.066   0.883   1.174   1.164   0.936   0.987   0.951   1.263   1.087   1.140   1.078   1.143   0.918   1.332   0.988   1.165   1.272   1.143   1.300   1.334   1.447   1.118   1.236   1.068   0.918
    20.69    1.293   0.963   1.235   1.197   1.094   0.963   1.499   1.564   1.439   1.864   1.844   1.735   1.403   1.325   1.462   1.442   1.404   1.205   1.570   1.617   1.641   1.292   1.620   1.373   1.618   1.106   1.511   1.367   1.135   1.233   1.141   1.047   1.544   1.698   2.031   2.267   1.831   1.613   1.949   1.559   1.495   1.904   1.411   1.608   1.782   1.812   2.020   2.195   2.122   2.022   1.519   1.656   1.588   1.695   1.163   1.131   1.176   1.299   1.484   1.706   1.469   1.340   1.619   1.331   1.397   1.476   1.001   1.184   1.670   1.399   1.627   1.637   1.471   1.305   1.026   1.354   1.199   1.034   1.341   1.308   1.288   1.146   1.031   0.985   1.069   0.965   1.153   1.232   1.473   1.242   1.134   1.065   1.020   1.207   1.306   1.016   0.884   0.927   0.887   0.981   1.321   1.188   1.071   1.100   1.055   0.914   1.097   1.265   1.289   1.079   0.997   1.101   1.344
    10.34    1.514   1.177   1.459   1.270   1.094   1.137   1.554   1.680   1.468   1.822   1.938   1.741   1.245   1.428   1.636   1.322   1.269   1.372   1.349   1.338   1.373   1.141   1.176   1.440   1.435   1.255   1.146   1.464   1.182   1.051   1.135   1.338   1.430   1.628   2.008   2.229   1.940   2.071   1.714   2.148   1.740   1.907   1.657   1.613   1.839   1.812   2.024   1.829   1.642   1.456   1.767   1.630   1.347   1.454   1.197   1.158   1.244   1.212   1.420   1.497   1.279   1.504   1.437   1.332   1.387   1.007   1.164   1.120   1.518   1.391   1.686   1.622   1.578   1.394   1.312   1.602   1.053   1.131   1.050   1.198   0.894   1.000   0.836   0.782   1.016   1.288   1.042   1.057   1.516   1.331   1.077   1.249   1.197   1.148   0.863   0.990   1.021   0.980   1.226   1.223   1.364   1.188   0.996   1.009   0.994   1.004   1.330   1.500   1.198   1.166   1.200   0.975   1.277
     0.00    1.268   1.387   1.162   1.152   1.248   1.289   1.538   1.471   1.685   1.906   1.556   1.793   1.316   1.169   1.322   1.666   1.154   1.282   1.187   1.138   0.986   1.218   1.357   1.225   1.028   0.982   0.806   1.105   1.313   1.401   1.554   1.005   1.367   1.606   1.737   1.929   1.742   1.828   1.875   1.938   2.025   1.874   1.769   1.248   1.389   1.592   1.647   1.736   1.607   1.722   1.747   1.325   0.995   1.294   1.294   0.974   0.791   1.050   1.252   1.474   1.460   1.260   0.974   1.110   1.312   0.895   1.063   1.145   1.204   1.575   1.535   1.093   1.359   0.947   0.989   1.257   1.376   1.400   1.497   1.092   0.999   1.136   0.924   0.935   0.909   1.158   1.040   1.119   1.278   1.294   1.108   1.288   1.246   1.084   1.020   1.059   1.082   0.878   1.142   0.734   0.980   1.211   1.178   1.147   1.171   1.059   1.231   1.401   1.218   0.911   1.080   1.183   1.082

   Height   Standard deviation at grid points for the v component:
   300.00    1.199   1.199   1.199   1.199   1.199   1.199   1.199   1.199   1.199   1.199   1.199   1.199   1.199   1.199   1.199   1.199   1.199   1.199   1.199   1.199   1.199   1.199   1.199   1.199   1.199   1.199   1.199   1.199   1.199   1.199   1.199   1.199   1.199   1.199   1.199   1.199   1.199   1.199   1.199   1.199   1.199   1.199   1.199   1.199   1.199   1.199   1.199   1.199   1.199   1.199   1.199   1.199   1.199   1.199   1.199   1.199   1.199   1.199   1.199   1.199   1.199   1.199   1.199   1.199   1.199   1.199   1.199   1.199   1.199   1.199   1.199   1.199   1.199   1.199   1.199   1.199   1.199   1.199   1.199   1.199   1.199   1.199   1.199   1.199   1.199   1.199   1.199   1.199   1.199   1.199   1.199   1.199   1.199   1.199   1.199   1.199   1.199   1.199   1.199   1.199   1.199   1.199   1.199   1.199   1.199   1.199   1.199   1.199   1.199   1.199   1.199   1.199   1.199
   289.66    1.199   1.199   1.199   1.199   1.199   1.199   1.199   1.199   1.199   1.199   1.199   1.199   1.199   1.199   1.199   1.199   1.199   1.199   1.199   1.199   1.199   1.199   1.199   1.199   1.199   1.199   1.199   1.199   1.199   1.199   1.199   1.199   1.199   1.199   1.199   1.199   1.199   1.199   1.199   1.199   1.199   1.199   1.199   1.199   1.199   1.199   1.199   1.199   1.199   1.199   1.199   1.199   1.199   1.199   1.199   1.199   1.199   1.199   1.199   1.199   1.199   1.199   1.199   1.199   1.199   1.199   1.199   1.199   1.199   1.199   1.199   1.199   1.199   1.199   1.199   1.199   1.199   1.199   1.199   1.199   1.199   1.199   1.199   1.199   1.199   1.199   1.199   1.199   1.199   1.199   1.199   1.199   1.199   1.199   1.199   1.199   1.199   1.199   1.199   1.199   1.199   1.199   1.199   1.199   1.199   1.199   1.199   1.199   1.199   1.199   1.199   1.199   1.199
   279.31    1.199   1.199   1.199   1.199   1.199   1.199   1.199   1.199   1.199   1.199   1.199   1.199   1.199   1.199   1.199   1.199   1.199   1.199   1.199   1.199   1.199   1.199   1.199   1.199   1.199   1.199   1.199   1.199   1.199   1.199   1.199   1.199   1.199   1.199   1.199   1.199   1.199   1.199   1.199   1.199   1.199   1.199   1.199   1.199   1.199   1.199   1.199   1.199   1.199   1.199   1.199   1.199   1.199   1.199   1.199   1.199   1.199   1.199   1.199   1.199   1.199   1.199   1.199   1.199   1.199   1.199   1.199   1.199   1.199   1.199   1.199   1.199   1.199   1.199   1.199   1.199   1.199   1.199   1.199   1.199   1.199   1.199   1.199   1.199   1.199   1.199   1.199   1.199   1.199   1.199   1.199   1.199   1.199   1.199   1.199   1.199   1.199   1.199   1.199   1.199   1.199   1.199   1.199   1.199   1.199   1.199   1.199   1.199   1.199   1.199   1.199   1.199   1.199
   268.97    1.199   1.199   1.199   1.199   1.199   1.199   1.199   1.199   1.199   1.199   1.199   1.199   1.199   1.199   1.199   1.199   1.199   1.199   1.199   1.199   1.199   1.199   1.199   1.199   1.199   1.199   1.199   1.199   1.199   1.199   1.199   1.199   1.199   1.199   1.199   1.199   1.199   1.199   1.199   1.199   1.199   1.199   1.199   1.199   1.199   1.199   1.199   1.199   1.199   1.199   1.199   1.199   1.199   1.199   1.199   1.199   1.199   1.199   1.199   1.199   1.199   1.199   1.199   1.199   1.199   1.199   1.199   1.199   1.199   1.199   1.199   1.199   1.199   1.199   1.199   1.199   1.199   1.199   1.199   1.199   1.199   1.199   1.199   1.199   1.199   1.199   1.199   1.199   1.199   1.199   1.199   1.199   1.199   1.199   1.199   1.199   1.199   1.199   1.199   1.199   1.199   1.199   1.199   1.199   1.199   1.199   1.199   1.199   1.199   1.199   1.199   1.199   1.199
   258.62    1.199   1.199   1.199   1.199   1.199   1.199   1.199   1.199   1.199   1.199   1.199   1.199   1.199   1.199   1.199   1.199   1.199   1.199   1.199   1.199   1.199   1.199   1.199   1.199   1.199   1.199   1.199   1.199   1.199   1.199   1.199   1.199   1.199   1.199   1.199   1.199   1.199   1.199   1.199   1.199   1.199   1.199   1.199   1.199   1.199   1.199   1.199   1.199   1.199   1.199   1.199   1.199   1.199   1.199   1.199   1.199   1.199   1.199   1.199   1.199   1.199   1.199   1.199   1.199   1.199   1.199   1.199   1.199   1.199   1.199   1.199   1.199   1.199   1.199   1.199   1.199   1.199   1.199   1.199   1.199   1.199   1.199   1.199   1.199   1.199   1.199   1.199   1.199   1.199   1.199   1.199   1.199   1.199   1.199   1.199   1.199   1.199   1.199   1.199   1.199   1.199   1.199   1.199   1.199   1.199   1.199   1.199   1.199   1.199   1.199   1.199   1.199   1.199
   248.28    1.199   1.199   1.199   1.199   1.199   1.199   1.199   1.199   1.199   1.199   1.199   1.199   1.199   1.199   1.199   1.199   1.199   1.199   1.199   1.199   1.199   1.199   1.199   1.199   1.199   1.199   1.199   1.199   1.199   1.199   1.199   1.199   1.199   1.199   1.199   1.199   1.199   1.199   1.199   1.199   1.199   1.199   1.199   1.199   1.199   1.199   1.199   1.199   1.199   1.199   1.199   1.199   1.199   1.199   1.199   1.199   1.199   1.199   1.199   1.199   1.199   1.199   1.199   1.199   1.199   1.199   1.199   1.199   1.199   1.199   1.199   1.199   1.199   1.199   1.199   1.199   1.199   1.199   1.199   1.199   1.199   1.199   1.199   1.199   1.199   1.199   1.199   1.199   1.199   1.199   1.199   1.199   1.199   1.199   1.199   1.199   1.199   1.199   1.199   1.199   1.199   1.199   1.199   1.199   1.199   1.199   1.199   1.199   1.199   1.199   1.199   1.199   1.199
   237.93    1.199   1.199   1.199   1.199   1.199   1.199   1.199   1.199   1.199   1.199   1.199   1.199   1.199   1.199   1.199   1.199   1.199   1.199   1.199   1.199   1.199   1.199   1.199   1.199   1.199   1.199   1.199   1.199   1.199   1.199   1.199   1.199   1.199   1.199   1.199   1.199   1.199   1.199   1.199   1.199   1.199   1.199   1.199   1.199   1.199   1.199   1.199   1.199   1.199   1.199   1.199   1.199   1.199   1.199   1.199   1.199   1.199   1.199   1.199   1.199   1.199   1.199   1.199   1.199   1.199   1.199   1.199   1.199   1.199   1.199   1.199   1.199   1.199   1.199   1.199   1.199   1.199   1.199   1.199   1.199   1.199   1.199   1.199   1.199   1.199   1.199   1.199   1.199   1.199   1.199   1.199   1.199   1.199   1.199   1.199   1.199   1.199   1.199   1.199   1.199   1.199   1.199   1.199   1.199   1.199   1.199   1.199   1.199   1.199   1.199   1.199   1.199   1.199
   227.59    1.199   1.199   1.199   1.199   1.199   1.199   1.199   1.199   1.199   1.199   1.199   1.199   1.199   1.199   1.199   1.199   1.199   1.199   1.199   1.199   1.199   1.199   1.199   1.199   1.199   1.199   1.199   1.199   1.199   1.199   1.199   1.199   1.199   1.199   1.199   1.199   1.199   1.199   1.199   1.199   1.199   1.199   1.199   1.199   1.199   1.199   1.199   1.199   1.199   1.199   1.199   1.199   1.199   1.199   1.199   1.199   1.199   1.199   1.199   1.199   1.199   1.199   1.199   1.199   1.199   1.199   1.199   1.199   1.199   1.199   1.199   1.199   1.199   1.199   1.199   1.199   1.199   1.199   1.199   1.199   1.199   1.199   1.199   1.199   1.199   1.199   1.199   1.199   1.199   1.199   1.199   1.199   1.199   1.199   1.199   1.199   1.199   1.199   1.199   1.199   1.199   1.199   1.199   1.199   1.199   1.199   1.199   1.199   1.199   1.199   1.199   1.199   1.199
   217.24    1.199   1.199   1.199   1.199   1.199   1.199   1.199   1.199   1.199   1.199   1.199   1.199   1.199   1.199   1.199   1.199   1.199   1.199   1.199   1.199   1.199   1.199   1.199   1.199   1.199   1.199   1.199   1.199   1.199   1.199   1.199   1.199   1.199   1.199   1.199   1.199   1.199   1.199   1.199   1.199   1.199   1.199   1.199   1.199   1.199   1.199   1.199   1.199   1.199   1.199   1.199   1.199   1.199   1.199   1.199   1.199   1.199   1.199   1.199   1.199   1.199   1.199   1.199   1.199   1.199   1.199   1.199   1.199   1.199   1.199   1.199   1.199   1.199   1.199   1.199   1.199   1.199   1.199   1.199   1.199   1.199   1.199   1.199   1.199   1.199   1.199   1.199   1.199   1.199   1.199   1.199   1.199   1.199   1.199   1.199   1.199   1.199   1.199   1.199   1.199   1.199   1.199   1.199   1.199   1.199   1.199   1.199   1.199   1.199   1.199   1.199   1.199   1.199
   206.90    1.199   1.199   1.199   1.199   1.199   1.199   1.199   1.199   1.199   1.199   1.199   1.199   1.199   1.199   1.199   1.199   1.199   1.199   1.199   1.199   1.199   1.199   1.199   1.199   1.199   1.199   1.199   1.199   1.199   1.199   1.199   1.199   1.199   1.199   1.199   1.199   1.199   1.199   1.199   1.199   1.199   1.199   1.199   1.199   1.199   1.199   1.199   1.199   1.199   1.199   1.199   1.199   1.199   1.199   1.199   1.199   1.199   1.199   1.199   1.199   1.199   1.199   1.199   1.199   1.199   1.199   1.199   1.199   1.199   1.199   1.199   1.199   1.199   1.199   1.199   1.199   1.199   1.199   1.199   1.199   1.199   1.199   1.199   1.199   1.199   1.199   1.199   1.199   1.199   1.199   1.199   1.199   1.199   1.199   1.199   1.199   1.199   1.199   1.199   1.199   1.199   1.199   1.199   1.199   1.199   1.199   1.199   1.199   1.199   1.199   1.199   1.199   1.199
   196.55    1.199   1.199   1.199   1.199   1.199   1.199   1.199   1.199   1.199   1.199   1.199   1.199   1.199   1.199   1.199   1.199   1.199   1.199   1.199   1.199   1.199   1.199   1.199   1.199   1.199   1.199   1.199   1.199   1.199   1.199   1.199   1.199   1.199   1.199   1.199   1.199   1.199   1.199   1.199   1.199   1.199   1.199   1.199   1.199   1.199   1.199   1.199   1.199   1.199   1.199   1.199   1.199   1.199   1.199   1.199   1.199   1.199   1.199   1.199   1.199   1.199   1.199   1.199   1.199   1.199   1.199   1.199   1.199   1.199   1.199   1.199   1.199   1.199   1.199   1.199   1.199   1.199   1.199   1.199   1.199   1.199   1.199   1.199   1.199   1.199   1.199   1.199   1.199   1.199   1.199   1.199   1.199   1.199   1.199   1.199   1.199   1.199   1.199   1.199   1.199   1.199   1.199   1.199   1.199   1.199   1.199   1.199   1.199   1.199   1.199   1.199   1.199   1.199
   186.21    1.199   1.199   1.199   1.199   1.199   1.199   1.199   1.199   1.199   1.199   1.199   1.199   1.199   1.199   1.199   1.199   1.199   1.199   1.199   1.199   1.199   1.199   1.199   1.199   1.199   1.199   1.199   1.199   1.199   1.199   1.199   1.199   1.199   1.199   1.199   1.199   1.199   1.199   1.199   1.199   1.199   1.199   1.199   1.199   1.199   1.199   1.199   1.199   1.199   1.199   1.199   1.199   1.199   1.199   1.199   1.199   1.199   1.199   1.199   1.199   1.199   1.199   1.199   1.199   1.199   1.199   1.199   1.199   1.199   1.199   1.199   1.199   1.199   1.199   1.199   1.199   1.199   1.199   1.199   1.199   1.199   1.199   1.199   1.199   1.199   1.199   1.199   1.199   1.199   1.199   1.199   1.199   1.199   1.199   1.199   1.199   1.199   1.199   1.199   1.199   1.199   1.199   1.199   1.199   1.199   1.199   1.199   1.199   1.199   1.199   1.199   1.199   1.199
   175.86    1.199   1.199   1.199   1.199   1.199   1.199   1.199   1.199   1.199   1.199   1.199   1.199   1.199   1.199   1.199   1.199   1.199   1.199   1.199   1.199   1.199   1.199   1.199   1.199   1.199   1.199   1.199   1.199   1.199   1.199   1.199   1.199   1.199   1.199   1.199   1.199   1.199   1.199   1.199   1.199   1.199   1.199   1.199   1.199   1.199   1.199   1.199   1.199   1.199   1.199   1.199   1.199   1.199   1.199   1.199   1.199   1.199   1.199   1.199   1.199   1.199   1.199   1.199   1.199   1.199   1.199   1.199   1.199   1.199   1.199   1.199   1.199   1.199   1.199   1.199   1.199   1.199   1.199   1.199   1.199   1.199   1.199   1.199   1.199   1.199   1.199   1.199   1.199   1.199   1.199   1.199   1.199   1.199   1.199   1.199   1.199   1.199   1.199   1.199   1.199   1.199   1.199   1.199   1.199   1.199   1.199   1.199   1.199   1.199   1.199   1.199   1.199   1.199
   165.52    1.199   1.199   1.199   1.199   1.199   1.199   1.199   1.199   1.199   1.199   1.199   1.199   1.199   1.199   1.199   1.199   1.199   1.199   1.199   1.199   1.199   1.199   1.199   1.199   1.199   1.199   1.199   1.199   1.199   1.199   1.199   1.199   1.199   1.199   1.199   1.199   1.199   1.199   1.199   1.199   1.199   1.199   1.199   1.199   1.199   1.199   1.199   1.199   1.199   1.199   1.199   1.199   1.199   1.199   1.199   1.199   1.199   1.199   1.199   1.199   1.199   1.199   1.199   1.199   1.199   1.199   1.199   1.199   1.199   1.199   1.199   1.199   1.199   1.199   1.199   1.199   1.199   1.199   1.199   1.199   1.199   1.199   1.199   1.199   1.199   1.199   1.199   1.199   1.199   1.199   1.199   1.199   1.199   1.199   1.199   1.199   1.199   1.199   1.199   1.199   1.199   1.199   1.199   1.199   1.199   1.199   1.199   1.199   1.199   1.199   1.199   1.199   1.199
   155.17    1.199   1.199   1.199   1.199   1.199   1.199   1.199   1.199   1.199   1.199   1.199   1.199   1.199   1.199   1.199   1.199   1.199   1.199   1.199   1.199   1.199   1.199   1.199   1.199   1.199   1.199   1.199   1.199   1.199   1.199   1.199   1.199   1.199   1.199   1.199   1.199   1.199   1.199   1.199   1.199   1.199   1.199   1.199   1.199   1.199   1.199   1.199   1.199   1.199   1.199   1.199   1.199   1.199   1.199   1.199   1.199   1.199   1.199   1.199   1.199   1.199   1.199   1.199   1.199   1.199   1.199   1.199   1.199   1.199   1.199   1.199   1.199   1.199   1.199   1.199   1.199   1.199   1.199   1.199   1.199   1.199   1.199   1.199   1.199   1.199   1.199   1.199   1.199   1.199   1.199   1.199   1.199   1.199   1.199   1.199   1.199   1.199   1.199   1.199   1.199   1.199   1.199   1.199   1.199   1.199   1.199   1.199   1.199   1.199   1.199   1.199   1.199   1.199
   144.83    1.199   1.199   1.199   1.199   1.199   1.199   1.199   1.199   1.199   1.199   1.199   1.199   1.199   1.199   1.199   1.199   1.199   1.199   1.199   1.199   1.199   1.199   1.199   1.199   1.199   1.199   1.199   1.199   1.199   1.199   1.199   1.199   1.199   1.199   1.199   1.199   1.199   1.199   1.199   1.199   1.199   1.199   1.199   1.199   1.199   1.199   1.199   1.199   1.199   1.199   1.199   1.199   1.199   1.199   1.199   1.199   1.199   1.199   1.199   1.199   1.199   1.199   1.199   1.199   1.199   1.199   1.199   1.199   1.199   1.199   1.199   1.199   1.199   1.199   1.199   1.199   1.199   1.199   1.199   1.199   1.199   1.199   1.199   1.199   1.199   1.199   1.199   1.199   1.199   1.199   1.199   1.199   1.199   1.199   1.199   1.199   1.199   1.199   1.199   1.199   1.199   1.199   1.199   1.199   1.199   1.199   1.199   1.199   1.199   1.199   1.199   1.199   1.199
   134.48    1.199   1.199   1.199   1.199   1.199   1.199   1.199   1.199   1.199   1.199   1.199   1.199   1.199   1.199   1.199   1.199   1.199   1.199   1.199   1.199   1.199   1.199   1.199   1.199   1.199   1.199   1.199   1.199   1.199   1.199   1.199   1.199   1.199   1.199   1.199   1.199   1.199   1.199   1.199   1.199   1.199   1.199   1.199   1.199   1.199   1.199   1.199   1.199   1.199   1.199   1.199   1.199   1.199   1.199   1.199   1.199   1.199   1.199   1.199   1.199   1.199   1.199   1.199   1.199   1.199   1.199   1.199   1.199   1.199   1.199   1.199   1.199   1.199   1.199   1.199   1.199   1.199   1.199   1.199   1.199   1.199   1.199   1.199   1.199   1.199   1.199   1.199   1.199   1.199   1.199   1.199   1.199   1.199   1.199   1.199   1.199   1.199   1.199   1.199   1.199   1.199   1.199   1.199   1.199   1.199   1.199   1.199   1.199   1.199   1.199   1.199   1.199   1.199
   124.14    1.199   1.199   1.199   1.199   1.199   1.199   1.199   1.199   1.199   1.199   1.199   1.199   1.199   1.199   1.199   1.199   1.199   1.199   1.199   1.199   1.199   1.199   1.199   1.199   1.199   1.199   1.199   1.199   1.199   1.199   1.199   1.199   1.199   1.199   1.199   1.199   1.199   1.199   1.199   1.199   1.199   1.199   1.199   1.199   1.199   1.199   1.199   1.199   1.199   1.199   1.199   1.199   1.199   1.199   1.199   1.199   1.199   1.199   1.199   1.199   1.199   1.199   1.199   1.199   1.199   1.199   1.199   1.199   1.199   1.199   1.199   1.199   1.199   1.199   1.199   1.199   1.199   1.199   1.199   1.199   1.199   1.199   1.199   1.199   1.199   1.199   1.199   1.199   1.199   1.199   1.199   1.199   1.199   1.199   1.199   1.199   1.199   1.199   1.199   1.199   1.199   1.199   1.199   1.199   1.199   1.199   1.199   1.199   1.199   1.199   1.199   1.199   1.199
   113.79    1.199   1.199   1.199   1.199   1.199   1.199   1.199   1.199   1.199   1.199   1.199   1.199   1.199   1.199   1.199   1.199   1.199   1.199   1.199   1.199   1.199   1.199   1.199   1.199   1.199   1.199   1.199   1.199   1.199   1.199   1.199   1.199   1.199   1.199   1.199   1.199   1.199   1.199   1.199   1.199   1.199   1.199   1.199   1.199   1.199   1.199   1.199   1.199   1.199   1.199   1.199   1.199   1.199   1.199   1.199   1.199   1.199   1.199   1.199   1.199   1.199   1.199   1.199   1.199   1.199   1.199   1.199   1.199   1.199   1.199   1.199   1.199   1.199   1.199   1.199   1.199   1.199   1.199   1.199   1.199   1.199   1.199   1.199   1.199   1.199   1.199   1.199   1.199   1.199   1.199   1.199   1.199   1.199   1.199   1.199   1.199   1.199   1.199   1.199   1.199   1.199   1.199   1.199   1.199   1.199   1.199   1.199   1.199   1.199   1.199   1.199   1.199   1.199
   103.45    1.199   1.199   1.199   1.199   1.199   1.199   1.199   1.199   1.199   1.199   1.199   1.199   1.199   1.199   1.199   1.199   1.199   1.199   1.199   1.199   1.199   1.199   1.199   1.199   1.199   1.199   1.199   1.199   1.199   1.199   1.199   1.199   1.199   1.199   1.199   1.199   1.199   1.199   1.199   1.199   1.199   1.199   1.199   1.199   1.199   1.199   1.199   1.199   1.199   1.199   1.199   1.199   1.199   1.199   1.199   1.199   1.199   1.199   1.199   1.199   1.199   1.199   1.199   1.199   1.199   1.199   1.199   1.199   1.199   1.199   1.199   1.199   1.199   1.199   1.199   1.199   1.199   1.199   1.199   1.199   1.199   1.199   1.199   1.199   1.199   1.199   1.199   1.199   1.199   1.199   1.199   1.199   1.199   1.199   1.199   1.199   1.199   1.199   1.199   1.199   1.199   1.199   1.199   1.199   1.199   1.199   1.199   1.199   1.199   1.199   1.199   1.199   1.199
    93.10    1.199   1.199   1.199   1.199   1.199   1.199   1.199   1.199   1.199   1.199   1.199   1.199   1.199   1.199   1.199   1.199   1.199   1.199   1.199   1.199   1.199   1.199   1.199   1.199   1.199   1.199   1.199   1.199   1.199   1.199   1.199   1.199   1.199   1.199   1.199   1.199   1.199   1.199   1.199   1.199   1.199   1.199   1.199   1.199   1.199   1.199   1.199   1.199   1.199   1.199   1.199   1.199   1.199   1.199   1.199   1.199   1.199   1.199   1.199   1.199   1.199   1.199   1.199   1.199   1.199   1.199   1.199   1.199   1.199   1.199   1.199   1.199   1.199   1.199   1.199   1.199   1.199   1.199   1.199   1.199   1.199   1.199   1.199   1.199   1.199   1.199   1.199   1.199   1.199   1.199   1.199   1.199   1.199   1.199   1.199   1.199   1.199   1.199   1.199   1.199   1.199   1.199   1.199   1.199   1.199   1.199   1.199   1.199   1.199   1.199   1.199   1.199   1.199
    82.76    1.199   1.199   1.199   1.199   1.199   1.199   1.199   1.199   1.199   1.199   1.199   1.199   1.199   1.199   1.199   1.199   1.199   1.199   1.199   1.199   1.199   1.199   1.199   1.199   1.199   1.199   1.199   1.199   1.199   1.199   1.199   1.199   1.199   1.199   1.199   1.199   1.199   1.199   1.199   1.199   1.199   1.199   1.199   1.199   1.199   1.199   1.199   1.199   1.199   1.199   1.199   1.199   1.199   1.199   1.199   1.199   1.199   1.199   1.199   1.199   1.199   1.199   1.199   1.199   1.199   1.199   1.199   1.199   1.199   1.199   1.199   1.199   1.199   1.199   1.199   1.199   1.199   1.199   1.199   1.199   1.199   1.199   1.199   1.199   1.199   1.199   1.199   1.199   1.199   1.199   1.199   1.199   1.199   1.199   1.199   1.199   1.199   1.199   1.199   1.199   1.199   1.199   1.199   1.199   1.199   1.199   1.199   1.199   1.199   1.199   1.199   1.199   1.199
    72.41    1.199   1.199   1.199   1.199   1.199   1.199   1.199   1.199   1.199   1.199   1.199   1.199   1.199   1.199   1.199   1.199   1.199   1.199   1.199   1.199   1.199   1.199   1.199   1.199   1.199   1.199   1.199   1.199   1.199   1.199   1.199   1.199   1.199   1.199   1.199   1.199   1.199   1.199   1.199   1.199   1.199   1.199   1.199   1.199   1.199   1.199   1.199   1.199   1.199   1.199   1.199   1.199   1.199   1.199   1.199   1.199   1.199   1.199   1.199   1.199   1.199   1.199   1.199   1.199   1.199   1.199   1.199   1.199   1.199   1.199   1.199   1.199   1.199   1.199   1.199   1.199   1.199   1.199   1.199   1.199   1.199   1.199   1.199   1.199   1.199   1.199   1.199   1.199   1.199   1.199   1.199   1.199   1.199   1.199   1.199   1.199   1.199   1.199   1.199   1.199   1.199   1.199   1.199   1.199   1.199   1.199   1.199   1.199   1.199   1.199   1.199   1.199   1.199
    62.07    1.199   1.199   1.199   1.199   1.199   1.199   1.199   1.199   1.199   1.199   1.199   1.199   1.199   1.199   1.199   1.199   1.199   1.199   1.199   1.199   1.199   1.199   1.199   1.199   1.199   1.199   1.199   1.199   1.199   1.199   1.199   1.199   1.199   1.199   1.199   1.199   1.199   1.199   1.199   1.199   1.199   1.199   1.199   1.199   1.199   1.199   1.199   1.199   1.199   1.199   1.199   1.199   1.199   1.199   1.199   1.199   1.199   1.199   1.199   1.199   1.199   1.199   1.199   1.199   1.199   1.199   1.199   1.199   1.199   1.199   1.199   1.199   1.199   1.199   1.199   1.199   1.199   1.199   1.199   1.199   1.199   1.199   1.199   1.199   1.199   1.199   1.199   1.199   1.199   1.199   1.199   1.199   1.199   1.199   1.199   1.199   1.199   1.199   1.199   1.199   1.199   1.199   1.199   1.199   1.199   1.199   1.199   1.199   1.199   1.199   1.199   1.199   1.199
    51.72    1.199   1.199   1.199   1.199   1.199   1.199   1.199   1.199   1.199   1.199   1.199   1.199   1.199   1.199   1.199   1.199   1.199   1.199   1.199   1.199   1.199   1.199   1.199   1.199   1.199   1.199   1.199   1.199   1.199   1.199   1.199   1.199   1.199   1.199   1.199   1.199   1.199   1.199   1.199   1.199   1.199   1.199   1.199   1.199   1.199   1.199   1.199   1.199   1.199   1.199   1.199   1.199   1.199   1.199   1.199   1.199   1.199   1.199   1.199   1.199   1.199   1.199   1.199   1.199   1.199   1.199   1.199   1.199   1.199   1.199   1.199   1.199   1.199   1.199   1.199   1.199   1.199   1.199   1.199   1.199   1.199   1.199   1.199   1.199   1.199   1.199   1.199   1.199   1.199   1.199   1.199   1.199   1.199   1.199   1.199   1.199   1.199   1.199   1.199   1.199   1.199   1.199   1.199   1.199   1.199   1.199   1.199   1.199   1.199   1.199   1.199   1.199   1.199
    41.38    1.199   1.199   1.199   1.199   1.199   1.199   1.199   1.199   1.199   1.199   1.199   1.199   1.199   1.199   1.199   1.199   1.199   1.199   1.199   1.199   1.199   1.199   1.199   1.199   1.199   1.199   1.199   1.199   1.199   1.199   1.199   1.199   1.199   1.199   1.199   1.199   1.199   1.199   1.199   1.199   1.199   1.199   1.199   1.199   1.199   1.199   1.199   1.199   1.199   1.199   1.199   1.199   1.199   1.199   1.199   1.199   1.199   1.199   1.199   1.199   1.199   1.199   1.199   1.199   1.199   1.199   1.199   1.199   1.199   1.199   1.199   1.199   1.199   1.199   1.199   1.199   1.199   1.199   1.199   1.199   1.199   1.199   1.199   1.199   1.199   1.199   1.199   1.199   1.199   1.199   1.199   1.199   1.199   1.199   1.199   1.199   1.199   1.199   1.199   1.199   1.199   1.199   1.199   1.199   1.199   1.199   1.199   1.199   1.199   1.199   1.199   1.199   1.199
    31.03    1.199   1.199   1.199   1.199   1.199   1.199   1.199   1.199   1.199   1.199   1.199   1.199   1.199   1.199   1.199   1.199   1.199   1.199   1.199   1.199   1.199   1.199   1.199   1.199   1.199   1.199   1.199   1.199   1.199   1.199   1.199   1.199   1.199   1.199   1.199   1.199   1.199   1.199   1.199   1.199   1.199   1.199   1.199   1.199   1.199   1.199   1.199   1.199   1.199   1.199   1.199   1.199   1.199   1.199   1.199   1.199   1.199   1.199   1.199   1.199   1.199   1.199   1.199   1.199   1.199   1.199   1.199   1.199   1.199   1.199   1.199   1.199   1.199   1.199   1.199   1.199   1.199   1.199   1.199   1.199   1.199   1.199   1.199   1.199   1.199   1.199   1.199   1.199   1.199   1.199   1.199   1.199   1.199   1.199   1.199   1.199   1.199   1.199   1.199   1.199   1.199   1.199   1.199   1.199   1.199   1.199   1.199   1.199   1.199   1.199   1.199   1.199   1.199
    20.69    1.199   1.199   1.199   1.199   1.199   1.199   1.199   1.199   1.199   1.199   1.199   1.199   1.199   1.199   1.199   1.199   1.199   1.199   1.199   1.199   1.199   1.199   1.199   1.199   1.199   1.199   1.199   1.199   1.199   1.199   1.199   1.199   1.199   1.199   1.199   1.199   1.199   1.199   1.199   1.199   1.199   1.199   1.199   1.199   1.199   1.199   1.199   1.199   1.199   1.199   1.199   1.199   1.199   1.199   1.199   1.199   1.199   1.199   1.199   1.199   1.199   1.199   1.199   1.199   1.199   1.199   1.199   1.199   1.199   1.199   1.199   1.199   1.199   1.199   1.199   1.199   1.199   1.199   1.199   1.199   1.199   1.199   1.199   1.199   1.199   1.199   1.199   1.199   1.199   1.199   1.199   1.199   1.199   1.199   1.199   1.199   1.199   1.199   1.199   1.199   1.199   1.199   1.199   1.199   1.199   1.199   1.199   1.199   1.199   1.199   1.199   1.199   1.199
    10.34    1.199   1.199   1.199   1.199   1.199   1.199   1.199   1.199   1.199   1.199   1.199   1.199   1.199   1.199   1.199   1.199   1.199   1.199   1.199   1.199   1.199   1.199   1.199   1.199   1.199   1.199   1.199   1.199   1.199   1.199   1.199   1.199   1.199   1.199   1.199   1.199   1.199   1.199   1.199   1.199   1.199   1.199   1.199   1.199   1.199   1.199   1.199   1.199   1.199   1.199   1.199   1.199   1.199   1.199   1.199   1.199   1.199   1.199   1.199   1.199   1.199   1.199   1.199   1.199   1.199   1.199   1.199   1.199   1.199   1.199   1.199   1.199   1.199   1.199   1.199   1.199   1.199   1.199   1.199   1.199   1.199   1.199   1.199   1.199   1.199   1.199   1.199   1.199   1.199   1.199   1.199   1.199   1.199   1.199   1.199   1.199   1.199   1.199   1.199   1.199   1.199   1.199   1.199   1.199   1.199   1.199   1.199   1.199   1.199   1.199   1.199   1.199   1.199
     0.00    1.199   1.199   1.199   1.199   1.199   1.199   1.199   1.199   1.199   1.199   1.199   1.199   1.199   1.199   1.199   1.199   1.199   1.199   1.199   1.199   1.199   1.199   1.199   1.199   1.199   1.199   1.199   1.199   1.199   1.199   1.199   1.199   1.199   1.199   1.199   1.199   1.199   1.199   1.199   1.199   1.199   1.199   1.199   1.199   1.199   1.199   1.199   1.199   1.199   1.199   1.199   1.199   1.199   1.199   1.199   1.199   1.199   1.199   1.199   1.199   1.199   1.199   1.199   1.199   1.199   1.199   1.199   1.199   1.199   1.199   1.199   1.199   1.199   1.199   1.199   1.199   1.199   1.199   1.199   1.199   1.199   1.199   1.199   1.199   1.199   1.199   1.199   1.199   1.199   1.199   1.199   1.199   1.199   1.199   1.199   1.199   1.199   1.199   1.199   1.199   1.199   1.199   1.199   1.199   1.199   1.199   1.199   1.199   1.199   1.199   1.199   1.199   1.199

   Height   Standard deviation at grid points for the w component:
   300.00    0.781   0.781   0.781   0.781   0.781   0.781   0.781   0.781   0.781   0.781   0.781   0.781   0.781   0.781   0.781   0.781   0.781   0.781   0.781   0.781   0.781   0.781   0.781   0.781   0.781   0.781   0.781   0.781   0.781   0.781   0.781   0.781   0.781   0.781   0.781   0.781   0.781   0.781   0.781   0.781   0.781   0.781   0.781   0.781   0.781   0.781   0.781   0.781   0.781   0.781   0.781   0.781   0.781   0.781   0.781   0.781   0.781   0.781   0.781   0.781   0.781   0.781   0.781   0.781   0.781   0.781   0.781   0.781   0.781   0.781   0.781   0.781   0.781   0.781   0.781   0.781   0.781   0.781   0.781   0.781   0.781   0.781   0.781   0.781   0.781   0.781   0.781   0.781   0.781   0.781   0.781   0.781   0.781   0.781   0.781   0.781   0.781   0.781   0.781   0.781   0.781   0.781   0.781   0.781   0.781   0.781   0.781   0.781   0.781   0.781   0.781   0.781   0.781
   289.66    0.781   0.781   0.781   0.781   0.781   0.781   0.781   0.781   0.781   0.781   0.781   0.781   0.781   0.781   0.781   0.781   0.781   0.781   0.781   0.781   0.781   0.781   0.781   0.781   0.781   0.781   0.781   0.781   0.781   0.781   0.781   0.781   0.781   0.781   0.781   0.781   0.781   0.781   0.781   0.781   0.781   0.781   0.781   0.781   0.781   0.781   0.781   0.781   0.781   0.781   0.781   0.781   0.781   0.781   0.781   0.781   0.781   0.781   0.781   0.781   0.781   0.781   0.781   0.781   0.781   0.781   0.781   0.781   0.781   0.781   0.781   0.781   0.781   0.781   0.781   0.781   0.781   0.781   0.781   0.781   0.781   0.781   0.781   0.781   0.781   0.781   0.781   0.781   0.781   0.781   0.781   0.781   0.781   0.781   0.781   0.781   0.781   0.781   0.781   0.781   0.781   0.781   0.781   0.781   0.781   0.781   0.781   0.781   0.781   0.781   0.781   0.781   0.781
   279.31    0.781   0.781   0.781   0.781   0.781   0.781   0.781   0.781   0.781   0.781   0.781   0.781   0.781   0.781   0.781   0.781   0.781   0.781   0.781   0.781   0.781   0.781   0.781   0.781   0.781   0.781   0.781   0.781   0.781   0.781   0.781   0.781   0.781   0.781   0.781   0.781   0.781   0.781   0.781   0.781   0.781   0.781   0.781   0.781   0.781   0.781   0.781   0.781   0.781   0.781   0.781   0.781   0.781   0.781   0.781   0.781   0.781   0.781   0.781   0.781   0.781   0.781   0.781   0.781   0.781   0.781   0.781   0.781   0.781   0.781   0.781   0.781   0.781   0.781   0.781   0.781   0.781   0.781   0.781   0.781   0.781   0.781   0.781   0.781   0.781   0.781   0.781   0.781   0.781   0.781   0.781   0.781   0.781   0.781   0.781   0.781   0.781   0.781   0.781   0.781   0.781   0.781   0.781   0.781   0.781   0.781   0.781   0.781   0.781   0.781   0.781   0.781   0.781
   268.97    0.781   0.781   0.781   0.781   0.781   0.781   0.781   0.781   0.781   0.781   0.781   0.781   0.781   0.781   0.781   0.781   0.781   0.781   0.781   0.781   0.781   0.781   0.781   0.781   0.781   0.781   0.781   0.781   0.781   0.781   0.781   0.781   0.781   0.781   0.781   0.781   0.781   0.781   0.781   0.781   0.781   0.781   0.781   0.781   0.781   0.781   0.781   0.781   0.781   0.781   0.781   0.781   0.781   0.781   0.781   0.781   0.781   0.781   0.781   0.781   0.781   0.781   0.781   0.781   0.781   0.781   0.781   0.781   0.781   0.781   0.781   0.781   0.781   0.781   0.781   0.781   0.781   0.781   0.781   0.781   0.781   0.781   0.781   0.781   0.781   0.781   0.781   0.781   0.781   0.781   0.781   0.781   0.781   0.781   0.781   0.781   0.781   0.781   0.781   0.781   0.781   0.781   0.781   0.781   0.781   0.781   0.781   0.781   0.781   0.781   0.781   0.781   0.781
   258.62    0.781   0.781   0.781   0.781   0.781   0.781   0.781   0.781   0.781   0.781   0.781   0.781   0.781   0.781   0.781   0.781   0.781   0.781   0.781   0.781   0.781   0.781   0.781   0.781   0.781   0.781   0.781   0.781   0.781   0.781   0.781   0.781   0.781   0.781   0.781   0.781   0.781   0.781   0.781   0.781   0.781   0.781   0.781   0.781   0.781   0.781   0.781   0.781   0.781   0.781   0.781   0.781   0.781   0.781   0.781   0.781   0.781   0.781   0.781   0.781   0.781   0.781   0.781   0.781   0.781   0.781   0.781   0.781   0.781   0.781   0.781   0.781   0.781   0.781   0.781   0.781   0.781   0.781   0.781   0.781   0.781   0.781   0.781   0.781   0.781   0.781   0.781   0.781   0.781   0.781   0.781   0.781   0.781   0.781   0.781   0.781   0.781   0.781   0.781   0.781   0.781   0.781   0.781   0.781   0.781   0.781   0.781   0.781   0.781   0.781   0.781   0.781   0.781
   248.28    0.781   0.781   0.781   0.781   0.781   0.781   0.781   0.781   0.781   0.781   0.781   0.781   0.781   0.781   0.781   0.781   0.781   0.781   0.781   0.781   0.781   0.781   0.781   0.781   0.781   0.781   0.781   0.781   0.781   0.781   0.781   0.781   0.781   0.781   0.781   0.781   0.781   0.781   0.781   0.781   0.781   0.781   0.781   0.781   0.781   0.781   0.781   0.781   0.781   0.781   0.781   0.781   0.781   0.781   0.781   0.781   0.781   0.781   0.781   0.781   0.781   0.781   0.781   0.781   0.781   0.781   0.781   0.781   0.781   0.781   0.781   0.781   0.781   0.781   0.781   0.781   0.781   0.781   0.781   0.781   0.781   0.781   0.781   0.781   0.781   0.781   0.781   0.781   0.781   0.781   0.781   0.781   0.781   0.781   0.781   0.781   0.781   0.781   0.781   0.781   0.781   0.781   0.781   0.781   0.781   0.781   0.781   0.781   0.781   0.781   0.781   0.781   0.781
   237.93    0.781   0.781   0.781   0.781   0.781   0.781   0.781   0.781   0.781   0.781   0.781   0.781   0.781   0.781   0.781   0.781   0.781   0.781   0.781   0.781   0.781   0.781   0.781   0.781   0.781   0.781   0.781   0.781   0.781   0.781   0.781   0.781   0.781   0.781   0.781   0.781   0.781   0.781   0.781   0.781   0.781   0.781   0.781   0.781   0.781   0.781   0.781   0.781   0.781   0.781   0.781   0.781   0.781   0.781   0.781   0.781   0.781   0.781   0.781   0.781   0.781   0.781   0.781   0.781   0.781   0.781   0.781   0.781   0.781   0.781   0.781   0.781   0.781   0.781   0.781   0.781   0.781   0.781   0.781   0.781   0.781   0.781   0.781   0.781   0.781   0.781   0.781   0.781   0.781   0.781   0.781   0.781   0.781   0.781   0.781   0.781   0.781   0.781   0.781   0.781   0.781   0.781   0.781   0.781   0.781   0.781   0.781   0.781   0.781   0.781   0.781   0.781   0.781
   227.59    0.781   0.781   0.781   0.781   0.781   0.781   0.781   0.781   0.781   0.781   0.781   0.781   0.781   0.781   0.781   0.781   0.781   0.781   0.781   0.781   0.781   0.781   0.781   0.781   0.781   0.781   0.781   0.781   0.781   0.781   0.781   0.781   0.781   0.781   0.781   0.781   0.781   0.781   0.781   0.781   0.781   0.781   0.781   0.781   0.781   0.781   0.781   0.781   0.781   0.781   0.781   0.781   0.781   0.781   0.781   0.781   0.781   0.781   0.781   0.781   0.781   0.781   0.781   0.781   0.781   0.781   0.781   0.781   0.781   0.781   0.781   0.781   0.781   0.781   0.781   0.781   0.781   0.781   0.781   0.781   0.781   0.781   0.781   0.781   0.781   0.781   0.781   0.781   0.781   0.781   0.781   0.781   0.781   0.781   0.781   0.781   0.781   0.781   0.781   0.781   0.781   0.781   0.781   0.781   0.781   0.781   0.781   0.781   0.781   0.781   0.781   0.781   0.781
   217.24    0.781   0.781   0.781   0.781   0.781   0.781   0.781   0.781   0.781   0.781   0.781   0.781   0.781   0.781   0.781   0.781   0.781   0.781   0.781   0.781   0.781   0.781   0.781   0.781   0.781   0.781   0.781   0.781   0.781   0.781   0.781   0.781   0.781   0.781   0.781   0.781   0.781   0.781   0.781   0.781   0.781   0.781   0.781   0.781   0.781   0.781   0.781   0.781   0.781   0.781   0.781   0.781   0.781   0.781   0.781   0.781   0.781   0.781   0.781   0.781   0.781   0.781   0.781   0.781   0.781   0.781   0.781   0.781   0.781   0.781   0.781   0.781   0.781   0.781   0.781   0.781   0.781   0.781   0.781   0.781   0.781   0.781   0.781   0.781   0.781   0.781   0.781   0.781   0.781   0.781   0.781   0.781   0.781   0.781   0.781   0.781   0.781   0.781   0.781   0.781   0.781   0.781   0.781   0.781   0.781   0.781   0.781   0.781   0.781   0.781   0.781   0.781   0.781
   206.90    0.781   0.781   0.781   0.781   0.781   0.781   0.781   0.781   0.781   0.781   0.781   0.781   0.781   0.781   0.781   0.781   0.781   0.781   0.781   0.781   0.781   0.781   0.781   0.781   0.781   0.781   0.781   0.781   0.781   0.781   0.781   0.781   0.781   0.781   0.781   0.781   0.781   0.781   0.781   0.781   0.781   0.781   0.781   0.781   0.781   0.781   0.781   0.781   0.781   0.781   0.781   0.781   0.781   0.781   0.781   0.781   0.781   0.781   0.781   0.781   0.781   0.781   0.781   0.781   0.781   0.781   0.781   0.781   0.781   0.781   0.781   0.781   0.781   0.781   0.781   0.781   0.781   0.781   0.781   0.781   0.781   0.781   0.781   0.781   0.781   0.781   0.781   0.781   0.781   0.781   0.781   0.781   0.781   0.781   0.781   0.781   0.781   0.781   0.781   0.781   0.781   0.781   0.781   0.781   0.781   0.781   0.781   0.781   0.781   0.781   0.781   0.781   0.781
   196.55    0.781   0.781   0.781   0.781   0.781   0.781   0.781   0.781   0.781   0.781   0.781   0.781   0.781   0.781   0.781   0.781   0.781   0.781   0.781   0.781   0.781   0.781   0.781   0.781   0.781   0.781   0.781   0.781   0.781   0.781   0.781   0.781   0.781   0.781   0.781   0.781   0.781   0.781   0.781   0.781   0.781   0.781   0.781   0.781   0.781   0.781   0.781   0.781   0.781   0.781   0.781   0.781   0.781   0.781   0.781   0.781   0.781   0.781   0.781   0.781   0.781   0.781   0.781   0.781   0.781   0.781   0.781   0.781   0.781   0.781   0.781   0.781   0.781   0.781   0.781   0.781   0.781   0.781   0.781   0.781   0.781   0.781   0.781   0.781   0.781   0.781   0.781   0.781   0.781   0.781   0.781   0.781   0.781   0.781   0.781   0.781   0.781   0.781   0.781   0.781   0.781   0.781   0.781   0.781   0.781   0.781   0.781   0.781   0.781   0.781   0.781   0.781   0.781
   186.21    0.781   0.781   0.781   0.781   0.781   0.781   0.781   0.781   0.781   0.781   0.781   0.781   0.781   0.781   0.781   0.781   0.781   0.781   0.781   0.781   0.781   0.781   0.781   0.781   0.781   0.781   0.781   0.781   0.781   0.781   0.781   0.781   0.781   0.781   0.781   0.781   0.781   0.781   0.781   0.781   0.781   0.781   0.781   0.781   0.781   0.781   0.781   0.781   0.781   0.781   0.781   0.781   0.781   0.781   0.781   0.781   0.781   0.781   0.781   0.781   0.781   0.781   0.781   0.781   0.781   0.781   0.781   0.781   0.781   0.781   0.781   0.781   0.781   0.781   0.781   0.781   0.781   0.781   0.781   0.781   0.781   0.781   0.781   0.781   0.781   0.781   0.781   0.781   0.781   0.781   0.781   0.781   0.781   0.781   0.781   0.781   0.781   0.781   0.781   0.781   0.781   0.781   0.781   0.781   0.781   0.781   0.781   0.781   0.781   0.781   0.781   0.781   0.781
   175.86    0.781   0.781   0.781   0.781   0.781   0.781   0.781   0.781   0.781   0.781   0.781   0.781   0.781   0.781   0.781   0.781   0.781   0.781   0.781   0.781   0.781   0.781   0.781   0.781   0.781   0.781   0.781   0.781   0.781   0.781   0.781   0.781   0.781   0.781   0.781   0.781   0.781   0.781   0.781   0.781   0.781   0.781   0.781   0.781   0.781   0.781   0.781   0.781   0.781   0.781   0.781   0.781   0.781   0.781   0.781   0.781   0.781   0.781   0.781   0.781   0.781   0.781   0.781   0.781   0.781   0.781   0.781   0.781   0.781   0.781   0.781   0.781   0.781   0.781   0.781   0.781   0.781   0.781   0.781   0.781   0.781   0.781   0.781   0.781   0.781   0.781   0.781   0.781   0.781   0.781   0.781   0.781   0.781   0.781   0.781   0.781   0.781   0.781   0.781   0.781   0.781   0.781   0.781   0.781   0.781   0.781   0.781   0.781   0.781   0.781   0.781   0.781   0.781
   165.52    0.781   0.781   0.781   0.781   0.781   0.781   0.781   0.781   0.781   0.781   0.781   0.781   0.781   0.781   0.781   0.781   0.781   0.781   0.781   0.781   0.781   0.781   0.781   0.781   0.781   0.781   0.781   0.781   0.781   0.781   0.781   0.781   0.781   0.781   0.781   0.781   0.781   0.781   0.781   0.781   0.781   0.781   0.781   0.781   0.781   0.781   0.781   0.781   0.781   0.781   0.781   0.781   0.781   0.781   0.781   0.781   0.781   0.781   0.781   0.781   0.781   0.781   0.781   0.781   0.781   0.781   0.781   0.781   0.781   0.781   0.781   0.781   0.781   0.781   0.781   0.781   0.781   0.781   0.781   0.781   0.781   0.781   0.781   0.781   0.781   0.781   0.781   0.781   0.781   0.781   0.781   0.781   0.781   0.781   0.781   0.781   0.781   0.781   0.781   0.781   0.781   0.781   0.781   0.781   0.781   0.781   0.781   0.781   0.781   0.781   0.781   0.781   0.781
   155.17    0.781   0.781   0.781   0.781   0.781   0.781   0.781   0.781   0.781   0.781   0.781   0.781   0.781   0.781   0.781   0.781   0.781   0.781   0.781   0.781   0.781   0.781   0.781   0.781   0.781   0.781   0.781   0.781   0.781   0.781   0.781   0.781   0.781   0.781   0.781   0.781   0.781   0.781   0.781   0.781   0.781   0.781   0.781   0.781   0.781   0.781   0.781   0.781   0.781   0.781   0.781   0.781   0.781   0.781   0.781   0.781   0.781   0.781   0.781   0.781   0.781   0.781   0.781   0.781   0.781   0.781   0.781   0.781   0.781   0.781   0.781   0.781   0.781   0.781   0.781   0.781   0.781   0.781   0.781   0.781   0.781   0.781   0.781   0.781   0.781   0.781   0.781   0.781   0.781   0.781   0.781   0.781   0.781   0.781   0.781   0.781   0.781   0.781   0.781   0.781   0.781   0.781   0.781   0.781   0.781   0.781   0.781   0.781   0.781   0.781   0.781   0.781   0.781
   144.83    0.781   0.781   0.781   0.781   0.781   0.781   0.781   0.781   0.781   0.781   0.781   0.781   0.781   0.781   0.781   0.781   0.781   0.781   0.781   0.781   0.781   0.781   0.781   0.781   0.781   0.781   0.781   0.781   0.781   0.781   0.781   0.781   0.781   0.781   0.781   0.781   0.781   0.781   0.781   0.781   0.781   0.781   0.781   0.781   0.781   0.781   0.781   0.781   0.781   0.781   0.781   0.781   0.781   0.781   0.781   0.781   0.781   0.781   0.781   0.781   0.781   0.781   0.781   0.781   0.781   0.781   0.781   0.781   0.781   0.781   0.781   0.781   0.781   0.781   0.781   0.781   0.781   0.781   0.781   0.781   0.781   0.781   0.781   0.781   0.781   0.781   0.781   0.781   0.781   0.781   0.781   0.781   0.781   0.781   0.781   0.781   0.781   0.781   0.781   0.781   0.781   0.781   0.781   0.781   0.781   0.781   0.781   0.781   0.781   0.781   0.781   0.781   0.781
   134.48    0.781   0.781   0.781   0.781   0.781   0.781   0.781   0.781   0.781   0.781   0.781   0.781   0.781   0.781   0.781   0.781   0.781   0.781   0.781   0.781   0.781   0.781   0.781   0.781   0.781   0.781   0.781   0.781   0.781   0.781   0.781   0.781   0.781   0.781   0.781   0.781   0.781   0.781   0.781   0.781   0.781   0.781   0.781   0.781   0.781   0.781   0.781   0.781   0.781   0.781   0.781   0.781   0.781   0.781   0.781   0.781   0.781   0.781   0.781   0.781   0.781   0.781   0.781   0.781   0.781   0.781   0.781   0.781   0.781   0.781   0.781   0.781   0.781   0.781   0.781   0.781   0.781   0.781   0.781   0.781   0.781   0.781   0.781   0.781   0.781   0.781   0.781   0.781   0.781   0.781   0.781   0.781   0.781   0.781   0.781   0.781   0.781   0.781   0.781   0.781   0.781   0.781   0.781   0.781   0.781   0.781   0.781   0.781   0.781   0.781   0.781   0.781   0.781
   124.14    0.781   0.781   0.781   0.781   0.781   0.781   0.781   0.781   0.781   0.781   0.781   0.781   0.781   0.781   0.781   0.781   0.781   0.781   0.781   0.781   0.781   0.781   0.781   0.781   0.781   0.781   0.781   0.781   0.781   0.781   0.781   0.781   0.781   0.781   0.781   0.781   0.781   0.781   0.781   0.781   0.781   0.781   0.781   0.781   0.781   0.781   0.781   0.781   0.781   0.781   0.781   0.781   0.781   0.781   0.781   0.781   0.781   0.781   0.781   0.781   0.781   0.781   0.781   0.781   0.781   0.781   0.781   0.781   0.781   0.781   0.781   0.781   0.781   0.781   0.781   0.781   0.781   0.781   0.781   0.781   0.781   0.781   0.781   0.781   0.781   0.781   0.781   0.781   0.781   0.781   0.781   0.781   0.781   0.781   0.781   0.781   0.781   0.781   0.781   0.781   0.781   0.781   0.781   0.781   0.781   0.781   0.781   0.781   0.781   0.781   0.781   0.781   0.781
   113.79    0.781   0.781   0.781   0.781   0.781   0.781   0.781   0.781   0.781   0.781   0.781   0.781   0.781   0.781   0.781   0.781   0.781   0.781   0.781   0.781   0.781   0.781   0.781   0.781   0.781   0.781   0.781   0.781   0.781   0.781   0.781   0.781   0.781   0.781   0.781   0.781   0.781   0.781   0.781   0.781   0.781   0.781   0.781   0.781   0.781   0.781   0.781   0.781   0.781   0.781   0.781   0.781   0.781   0.781   0.781   0.781   0.781   0.781   0.781   0.781   0.781   0.781   0.781   0.781   0.781   0.781   0.781   0.781   0.781   0.781   0.781   0.781   0.781   0.781   0.781   0.781   0.781   0.781   0.781   0.781   0.781   0.781   0.781   0.781   0.781   0.781   0.781   0.781   0.781   0.781   0.781   0.781   0.781   0.781   0.781   0.781   0.781   0.781   0.781   0.781   0.781   0.781   0.781   0.781   0.781   0.781   0.781   0.781   0.781   0.781   0.781   0.781   0.781
   103.45    0.781   0.781   0.781   0.781   0.781   0.781   0.781   0.781   0.781   0.781   0.781   0.781   0.781   0.781   0.781   0.781   0.781   0.781   0.781   0.781   0.781   0.781   0.781   0.781   0.781   0.781   0.781   0.781   0.781   0.781   0.781   0.781   0.781   0.781   0.781   0.781   0.781   0.781   0.781   0.781   0.781   0.781   0.781   0.781   0.781   0.781   0.781   0.781   0.781   0.781   0.781   0.781   0.781   0.781   0.781   0.781   0.781   0.781   0.781   0.781   0.781   0.781   0.781   0.781   0.781   0.781   0.781   0.781   0.781   0.781   0.781   0.781   0.781   0.781   0.781   0.781   0.781   0.781   0.781   0.781   0.781   0.781   0.781   0.781   0.781   0.781   0.781   0.781   0.781   0.781   0.781   0.781   0.781   0.781   0.781   0.781   0.781   0.781   0.781   0.781   0.781   0.781   0.781   0.781   0.781   0.781   0.781   0.781   0.781   0.781   0.781   0.781   0.781
    93.10    0.781   0.781   0.781   0.781   0.781   0.781   0.781   0.781   0.781   0.781   0.781   0.781   0.781   0.781   0.781   0.781   0.781   0.781   0.781   0.781   0.781   0.781   0.781   0.781   0.781   0.781   0.781   0.781   0.781   0.781   0.781   0.781   0.781   0.781   0.781   0.781   0.781   0.781   0.781   0.781   0.781   0.781   0.781   0.781   0.781   0.781   0.781   0.781   0.781   0.781   0.781   0.781   0.781   0.781   0.781   0.781   0.781   0.781   0.781   0.781   0.781   0.781   0.781   0.781   0.781   0.781   0.781   0.781   0.781   0.781   0.781   0.781   0.781   0.781   0.781   0.781   0.781   0.781   0.781   0.781   0.781   0.781   0.781   0.781   0.781   0.781   0.781   0.781   0.781   0.781   0.781   0.781   0.781   0.781   0.781   0.781   0.781   0.781   0.781   0.781   0.781   0.781   0.781   0.781   0.781   0.781   0.781   0.781   0.781   0.781   0.781   0.781   0.781
    82.76    0.781   0.781   0.781   0.781   0.781   0.781   0.781   0.781   0.781   0.781   0.781   0.781   0.781   0.781   0.781   0.781   0.781   0.781   0.781   0.781   0.781   0.781   0.781   0.781   0.781   0.781   0.781   0.781   0.781   0.781   0.781   0.781   0.781   0.781   0.781   0.781   0.781   0.781   0.781   0.781   0.781   0.781   0.781   0.781   0.781   0.781   0.781   0.781   0.781   0.781   0.781   0.781   0.781   0.781   0.781   0.781   0.781   0.781   0.781   0.781   0.781   0.781   0.781   0.781   0.781   0.781   0.781   0.781   0.781   0.781   0.781   0.781   0.781   0.781   0.781   0.781   0.781   0.781   0.781   0.781   0.781   0.781   0.781   0.781   0.781   0.781   0.781   0.781   0.781   0.781   0.781   0.781   0.781   0.781   0.781   0.781   0.781   0.781   0.781   0.781   0.781   0.781   0.781   0.781   0.781   0.781   0.781   0.781   0.781   0.781   0.781   0.781   0.781
    72.41    0.781   0.781   0.781   0.781   0.781   0.781   0.781   0.781   0.781   0.781   0.781   0.781   0.781   0.781   0.781   0.781   0.781   0.781   0.781   0.781   0.781   0.781   0.781   0.781   0.781   0.781   0.781   0.781   0.781   0.781   0.781   0.781   0.781   0.781   0.781   0.781   0.781   0.781   0.781   0.781   0.781   0.781   0.781   0.781   0.781   0.781   0.781   0.781   0.781   0.781   0.781   0.781   0.781   0.781   0.781   0.781   0.781   0.781   0.781   0.781   0.781   0.781   0.781   0.781   0.781   0.781   0.781   0.781   0.781   0.781   0.781   0.781   0.781   0.781   0.781   0.781   0.781   0.781   0.781   0.781   0.781   0.781   0.781   0.781   0.781   0.781   0.781   0.781   0.781   0.781   0.781   0.781   0.781   0.781   0.781   0.781   0.781   0.781   0.781   0.781   0.781   0.781   0.781   0.781   0.781   0.781   0.781   0.781   0.781   0.781   0.781   0.781   0.781
    62.07    0.781   0.781   0.781   0.781   0.781   0.781   0.781   0.781   0.781   0.781   0.781   0.781   0.781   0.781   0.781   0.781   0.781   0.781   0.781   0.781   0.781   0.781   0.781   0.781   0.781   0.781   0.781   0.781   0.781   0.781   0.781   0.781   0.781   0.781   0.781   0.781   0.781   0.781   0.781   0.781   0.781   0.781   0.781   0.781   0.781   0.781   0.781   0.781   0.781   0.781   0.781   0.781   0.781   0.781   0.781   0.781   0.781   0.781   0.781   0.781   0.781   0.781   0.781   0.781   0.781   0.781   0.781   0.781   0.781   0.781   0.781   0.781   0.781   0.781   0.781   0.781   0.781   0.781   0.781   0.781   0.781   0.781   0.781   0.781   0.781   0.781   0.781   0.781   0.781   0.781   0.781   0.781   0.781   0.781   0.781   0.781   0.781   0.781   0.781   0.781   0.781   0.781   0.781   0.781   0.781   0.781   0.781   0.781   0.781   0.781   0.781   0.781   0.781
    51.72    0.781   0.781   0.781   0.781   0.781   0.781   0.781   0.781   0.781   0.781   0.781   0.781   0.781   0.781   0.781   0.781   0.781   0.781   0.781   0.781   0.781   0.781   0.781   0.781   0.781   0.781   0.781   0.781   0.781   0.781   0.781   0.781   0.781   0.781   0.781   0.781   0.781   0.781   0.781   0.781   0.781   0.781   0.781   0.781   0.781   0.781   0.781   0.781   0.781   0.781   0.781   0.781   0.781   0.781   0.781   0.781   0.781   0.781   0.781   0.781   0.781   0.781   0.781   0.781   0.781   0.781   0.781   0.781   0.781   0.781   0.781   0.781   0.781   0.781   0.781   0.781   0.781   0.781   0.781   0.781   0.781   0.781   0.781   0.781   0.781   0.781   0.781   0.781   0.781   0.781   0.781   0.781   0.781   0.781   0.781   0.781   0.781   0.781   0.781   0.781   0.781   0.781   0.781   0.781   0.781   0.781   0.781   0.781   0.781   0.781   0.781   0.781   0.781
    41.38    0.781   0.781   0.781   0.781   0.781   0.781   0.781   0.781   0.781   0.781   0.781   0.781   0.781   0.781   0.781   0.781   0.781   0.781   0.781   0.781   0.781   0.781   0.781   0.781   0.781   0.781   0.781   0.781   0.781   0.781   0.781   0.781   0.781   0.781   0.781   0.781   0.781   0.781   0.781   0.781   0.781   0.781   0.781   0.781   0.781   0.781   0.781   0.781   0.781   0.781   0.781   0.781   0.781   0.781   0.781   0.781   0.781   0.781   0.781   0.781   0.781   0.781   0.781   0.781   0.781   0.781   0.781   0.781   0.781   0.781   0.781   0.781   0.781   0.781   0.781   0.781   0.781   0.781   0.781   0.781   0.781   0.781   0.781   0.781   0.781   0.781   0.781   0.781   0.781   0.781   0.781   0.781   0.781   0.781   0.781   0.781   0.781   0.781   0.781   0.781   0.781   0.781   0.781   0.781   0.781   0.781   0.781   0.781   0.781   0.781   0.781   0.781   0.781
    31.03    0.781   0.781   0.781   0.781   0.781   0.781   0.781   0.781   0.781   0.781   0.781   0.781   0.781   0.781   0.781   0.781   0.781   0.781   0.781   0.781   0.781   0.781   0.781   0.781   0.781   0.781   0.781   0.781   0.781   0.781   0.781   0.781   0.781   0.781   0.781   0.781   0.781   0.781   0.781   0.781   0.781   0.781   0.781   0.781   0.781   0.781   0.781   0.781   0.781   0.781   0.781   0.781   0.781   0.781   0.781   0.781   0.781   0.781   0.781   0.781   0.781   0.781   0.781   0.781   0.781   0.781   0.781   0.781   0.781   0.781   0.781   0.781   0.781   0.781   0.781   0.781   0.781   0.781   0.781   0.781   0.781   0.781   0.781   0.781   0.781   0.781   0.781   0.781   0.781   0.781   0.781   0.781   0.781   0.781   0.781   0.781   0.781   0.781   0.781   0.781   0.781   0.781   0.781   0.781   0.781   0.781   0.781   0.781   0.781   0.781   0.781   0.781   0.781
    20.69    0.781   0.781   0.781   0.781   0.781   0.781   0.781   0.781   0.781   0.781   0.781   0.781   0.781   0.781   0.781   0.781   0.781   0.781   0.781   0.781   0.781   0.781   0.781   0.781   0.781   0.781   0.781   0.781   0.781   0.781   0.781   0.781   0.781   0.781   0.781   0.781   0.781   0.781   0.781   0.781   0.781   0.781   0.781   0.781   0.781   0.781   0.781   0.781   0.781   0.781   0.781   0.781   0.781   0.781   0.781   0.781   0.781   0.781   0.781   0.781   0.781   0.781   0.781   0.781   0.781   0.781   0.781   0.781   0.781   0.781   0.781   0.781   0.781   0.781   0.781   0.781   0.781   0.781   0.781   0.781   0.781   0.781   0.781   0.781   0.781   0.781   0.781   0.781   0.781   0.781   0.781   0.781   0.781   0.781   0.781   0.781   0.781   0.781   0.781   0.781   0.781   0.781   0.781   0.781   0.781   0.781   0.781   0.781   0.781   0.781   0.781   0.781   0.781
    10.34    0.781   0.781   0.781   0.781   0.781   0.781   0.781   0.781   0.781   0.781   0.781   0.781   0.781   0.781   0.781   0.781   0.781   0.781   0.781   0.781   0.781   0.781   0.781   0.781   0.781   0.781   0.781   0.781   0.781   0.781   0.781   0.781   0.781   0.781   0.781   0.781   0.781   0.781   0.781   0.781   0.781   0.781   0.781   0.781   0.781   0.781   0.781   0.781   0.781   0.781   0.781   0.781   0.781   0.781   0.781   0.781   0.781   0.781   0.781   0.781   0.781   0.781   0.781   0.781   0.781   0.781   0.781   0.781   0.781   0.781   0.781   0.781   0.781   0.781   0.781   0.781   0.781   0.781   0.781   0.781   0.781   0.781   0.781   0.781   0.781   0.781   0.781   0.781   0.781   0.781   0.781   0.781   0.781   0.781   0.781   0.781   0.781   0.781   0.781   0.781   0.781   0.781   0.781   0.781   0.781   0.781   0.781   0.781   0.781   0.781   0.781   0.781   0.781
     0.00    0.781   0.781   0.781   0.781   0.781   0.781   0.781   0.781   0.781   0.781   0.781   0.781   0.781   0.781   0.781   0.781   0.781   0.781   0.781   0.781   0.781   0.781   0.781   0.781   0.781   0.781   0.781   0.781   0.781   0.781   0.781   0.781   0.781   0.781   0.781   0.781   0.781   0.781   0.781   0.781   0.781   0.781   0.781   0.781   0.781   0.781   0.781   0.781   0.781   0.781   0.781   0.781   0.781   0.781   0.781   0.781   0.781   0.781   0.781   0.781   0.781   0.781   0.781   0.781   0.781   0.781   0.781   0.781   0.781   0.781   0.781   0.781   0.781   0.781   0.781   0.781   0.781   0.781   0.781   0.781   0.781   0.781   0.781   0.781   0.781   0.781   0.781   0.781   0.781   0.781   0.781   0.781   0.781   0.781   0.781   0.781   0.781   0.781   0.781   0.781   0.781   0.781   0.781   0.781   0.781   0.781   0.781   0.781   0.781   0.781   0.781   0.781   0.781

   Mean standard deviation across all grid points:
      u component:    1.245 m/s
      v component:    1.199 m/s
      w component:    0.781 m/s


U-component (X) statistics from the interpolated hub point:

   Mean =   7.6768 m/s
   TI   =  18.0755 %


Processing complete.  6.3906 CPU seconds used.
