
This summary file was generated by TurbSim (from OpenFAST-v4.1.2) on 23-Feb-2026 at 17:04:53.


Runtime Options:

1118124517  Random seed #1
    RANLUX  Type of random number generator
         F  Output binary HH turbulence parameters?
         F  Output formatted turbulence parameters?
         F  Output AeroDyn HH files?
         T  Output AeroDyn FF files?
         F  Output BLADED FF files?
         F  Output tower data?
         F  Output HAWC FF files?
         T  Output formatted FF files?
         F  Output coherent turbulence time step file?
 0 -  NONE  IEC turbulence models scaled to exact specified standard deviation


Turbine/Model Specifications:

        30  Vertical grid-point matrix dimension
       113  Horizontal grid-point matrix dimension
     1.000  Time step [seconds]
    90.000  Analysis time [seconds]
    90.000  Usable output time [seconds]
   150.000  Hub height [m]
   300.000  Grid height [m]
  1134.000  Grid width [m]
     0.000  Vertical flow angle [degrees]
     8.000  Horizontal flow angle [degrees]


Meteorological Boundary Conditions:

    IECKAI  IEC Kaimal spectral model
         1  IEC standard: IEC 61400-1 Ed. 3: 2005
         A  IEC turbulence characteristic
       NTM  IEC Normal Turbulence Model
       N/A  IEC Extreme Turbulence Model (ETM) "c" parameter [m/s]
       PL   Wind profile type
    90.000  Reference height [m]
     7.000  Reference wind speed [m/s]
       N/A  Jet height [m]
     0.200  Power law exponent
     0.030  Surface roughness length [m]


Non-IEC Meteorological Boundary Conditions:

       N/A  Site latitude [degrees]
       N/A  Gradient Richardson number
       N/A  Friction or shear velocity [m/s]
       N/A  Mixing layer depth [m]
       N/A  Mean hub u'w' Reynolds stress
       N/A  Mean hub u'v' Reynolds stress
       N/A  Mean hub v'w' Reynolds stress


Spatial Coherence Models:

       IEC  u-component coherence model
      NONE  v-component coherence model
      NONE  w-component coherence model
(   12.000, 0.353E-03)  u-component coherence parameters
                   N/A  v-component coherence parameters
                   N/A  w-component coherence parameters
       N/A  Coherence exponent


You have requested that the following file(s) be generated:

   Generator_Ambient/TurbSim3.bts (AeroDyn/TurbSim full-field wind file)
   Generator_Ambient/TurbSim3.u (formatted full-field U-component file)
   Generator_Ambient/TurbSim3.v (formatted full-field V-component file)
   Generator_Ambient/TurbSim3.w (formatted full-field W-component file)


Turbulence Simulation Scaling Parameter Summary:

   Turbulence model used                            =  IEC Kaimal
   Turbulence characteristic                        =  A
   IEC turbulence type                              =  Normal Turbulence Model
   IEC standard                                     =  IEC 61400-1 Ed. 3: 2005
   Mean wind speed at hub height                    =    7.753 m/s
   Expected value of turbulence intensity at 15 m/s =   16.000%
   Characteristic value of standard deviation       =    1.826 m/s
   Turbulence scale                                 =   42.000 m
   u-component integral scale                       =  340.200 m
   Coherency scale                                  =  340.200 m
   Characteristic value of hub turbulence intensity =   23.557%
   Gradient Richardson number                       =    0.000

   Wind profile type                                =  Power law
   Power law exponent                               =    0.200
   Mean shear across rotor disk                     =    0.030 (m/s)/m
   Assumed rotor diameter                           =  300.000 m
   Surface roughness length                         =    0.030 m

   Nyquist frequency of turbulent wind field        =    0.500 Hz

   Number of time steps in the FFT                  =       90
   Number of time steps output                      =       90
   Number of points simulated                       =     3391


Mean Flow Angles:

   Vertical   =   0.0 degrees
   Horizontal =   8.0 degrees

Mean Wind Speed Profile:

   Height    Wind Speed   Horizontal Angle  Vertical Angle  U-comp (X)   V-comp (Y)   W-comp (Z)
     (m)        (m/s)         (degrees)       (degrees)       (m/s)        (m/s)        (m/s)   
   ------    ----------   ----------------  --------------  ----------   ----------   ----------
    300.0        8.91            8.00            0.00          8.82         1.24         0.00
    289.7        8.84            8.00            0.00          8.76         1.23         0.00
    279.3        8.78            8.00            0.00          8.69         1.22         0.00
    269.0        8.71            8.00            0.00          8.63         1.21         0.00
    258.6        8.65            8.00            0.00          8.56         1.20         0.00
    248.3        8.58            8.00            0.00          8.49         1.19         0.00
    237.9        8.50            8.00            0.00          8.42         1.18         0.00
    227.6        8.43            8.00            0.00          8.35         1.17         0.00
    217.2        8.35            8.00            0.00          8.27         1.16         0.00
    206.9        8.27            8.00            0.00          8.19         1.15         0.00
    196.6        8.18            8.00            0.00          8.10         1.14         0.00
    186.2        8.10            8.00            0.00          8.02         1.13         0.00
    175.9        8.00            8.00            0.00          7.93         1.11         0.00
    165.5        7.91            8.00            0.00          7.83         1.10         0.00
    155.2        7.81            8.00            0.00          7.73         1.09         0.00
    150.0        7.75            8.00            0.00          7.68         1.08         0.00
    144.8        7.70            8.00            0.00          7.62         1.07         0.00
    134.5        7.59            8.00            0.00          7.51         1.06         0.00
    124.1        7.47            8.00            0.00          7.39         1.04         0.00
    113.8        7.34            8.00            0.00          7.26         1.02         0.00
    103.4        7.20            8.00            0.00          7.13         1.00         0.00
     93.1        7.05            8.00            0.00          6.98         0.98         0.00
     82.8        6.88            8.00            0.00          6.82         0.96         0.00
     72.4        6.70            8.00            0.00          6.64         0.93         0.00
     62.1        6.50            8.00            0.00          6.44         0.90         0.00
     51.7        6.27            8.00            0.00          6.20         0.87         0.00
     41.4        5.99            8.00            0.00          5.93         0.83         0.00
     31.0        5.66            8.00            0.00          5.60         0.79         0.00
     20.7        5.22            8.00            0.00          5.17         0.73         0.00
     10.3        4.54            8.00            0.00          4.50         0.63         0.00
      0.0        0.45            8.00            0.00          0.45         0.06         0.00


Harvested Random Seeds after Generation of the Random Numbers:

      4253511 K 1
            0 K 2


Hub-Height Simulated Turbulence Statistical Summary:

   Type of Wind        Min (m/s)   Mean (m/s)    Max (m/s)  Sigma (m/s)       TI (%)
   ----------------    ---------   ----------    ---------  -----------       ------
   Longitudinal (u)         4.79         7.75        10.40        1.561       20.131
   Lateral (v)             -2.66         0.00         2.81        1.199       15.470
   Vertical (w)            -1.56         0.00         1.84        0.781       10.068
   U component              4.91         7.68        10.30        1.470       19.146
   V component             -1.66         1.08         4.23        1.309       17.051
   W component             -1.56         0.00         1.84        0.781       10.167
   Horizontal (U&V)         4.94         7.85        10.77        1.538       19.597
   Total                    4.94         7.89        10.77        1.529       19.379

                       Min Reynolds     Mean Reynolds    Max Reynolds    Correlation
   Product             Stress (m/s)^2   Stress (m/s)^2   Stress (m/s)^2  Coefficient
   ----------------    --------------   --------------   --------------  -----------
   u'w'                     -3.258             0.082             3.253         0.067
   u'v'                     -3.390             0.928             7.429         0.496
   v'w'                     -2.481            -0.037             2.246        -0.039


   Friction Velocity (Ustar)  =      0.286 m/s
   Maximum Instantaneous TKE  =      7.455 (m/s)^2
   Maximum Instantaneous CTKE =      3.727 (m/s)^2


Grid Point Variance Summary:

   Y-coord -567.00 -556.88 -546.75 -536.62 -526.50 -516.38 -506.25 -496.12 -486.00 -475.88 -465.75 -455.62 -445.50 -435.38 -425.25 -415.12 -405.00 -394.88 -384.75 -374.62 -364.50 -354.38 -344.25 -334.12 -324.00 -313.88 -303.75 -293.62 -283.50 -273.38 -263.25 -253.12 -243.00 -232.88 -222.75 -212.62 -202.50 -192.38 -182.25 -172.12 -162.00 -151.88 -141.75 -131.62 -121.50 -111.38 -101.25  -91.12  -81.00  -70.88  -60.75  -50.62  -40.50  -30.38  -20.25  -10.12    0.00   10.12   20.25   30.38   40.50   50.62   60.75   70.88   81.00   91.12  101.25  111.38  121.50  131.62  141.75  151.88  162.00  172.12  182.25  192.38  202.50  212.62  222.75  232.88  243.00  253.12  263.25  273.38  283.50  293.62  303.75  313.88  324.00  334.12  344.25  354.38  364.50  374.62  384.75  394.88  405.00  415.12  425.25  435.38  445.50  455.62  465.75  475.88  486.00  496.12  506.25  516.38  526.50  536.62  546.75  556.88  567.00

   Height   Standard deviation at grid points for the u component:
   300.00    1.140   1.105   1.035   1.384   1.588   1.811   1.664   1.376   1.124   1.007   1.273   1.199   1.172   1.040   1.052   1.314   0.994   1.052   1.202   0.905   1.025   1.129   1.222   1.578   1.593   1.261   1.370   1.395   1.309   1.138   1.272   1.191   0.834   1.206   1.243   1.219   1.088   1.398   1.266   1.230   1.249   0.906   1.086   1.000   1.081   1.035   0.939   1.143   0.850   0.866   0.770   1.088   0.868   0.961   1.068   0.925   1.168   1.679   1.644   1.945   2.151   1.928   1.704   1.262   1.484   1.098   1.085   1.133   1.057   1.279   1.433   1.068   1.054   1.312   1.652   1.171   1.601   1.725   1.402   1.427   1.251   1.588   1.255   1.339   1.501   1.319   1.246   1.328   1.024   1.354   1.472   0.984   1.036   1.136   1.032   1.211   1.398   1.171   1.129   1.131   1.370   1.471   1.416   1.506   1.176   1.128   0.875   1.021   1.157   1.299   1.032   1.472   1.578
   289.66    1.036   1.040   0.909   1.140   1.229   1.355   1.653   1.740   1.587   1.244   1.300   1.086   0.965   1.050   0.976   0.978   0.966   1.358   1.207   1.336   1.041   1.474   1.649   1.719   1.118   1.202   1.251   1.192   1.296   1.128   1.188   1.255   1.120   1.085   1.213   1.136   0.937   1.214   1.429   1.289   1.013   1.165   0.992   1.013   0.891   1.081   0.987   0.846   0.734   0.801   0.964   1.043   1.196   0.920   0.861   1.213   1.362   1.470   1.735   1.733   2.027   1.982   1.670   1.390   1.364   1.231   1.425   0.943   1.164   1.146   1.044   1.308   1.030   1.330   1.325   1.667   1.368   1.467   1.451   1.839   1.508   1.661   1.356   1.242   1.414   1.472   1.401   1.517   1.541   1.508   1.327   1.054   1.065   1.034   0.859   1.231   1.279   1.156   0.835   1.041   0.956   1.342   1.385   1.358   0.774   0.928   0.917   1.094   1.170   1.073   1.101   1.240   1.419
   279.31    1.373   0.985   0.974   1.015   1.137   1.278   1.331   1.642   1.339   1.317   1.341   1.151   0.983   0.976   1.119   1.202   1.236   1.190   1.078   1.089   0.998   1.207   1.201   1.331   1.335   0.994   1.269   1.495   1.326   1.206   1.178   1.318   1.189   1.212   1.000   1.123   1.116   1.148   1.228   0.987   1.235   1.007   1.049   1.190   0.958   1.125   1.117   0.782   0.856   0.903   0.986   1.194   1.096   1.323   1.073   1.277   1.276   1.531   1.693   1.780   1.891   1.630   1.476   1.407   0.999   1.150   1.102   1.194   1.412   1.082   1.185   1.466   0.966   1.205   1.526   1.381   1.316   1.526   1.621   1.532   1.676   1.700   1.504   1.228   1.517   1.868   1.907   1.955   1.746   1.824   1.820   1.304   1.149   0.937   0.748   0.923   1.011   1.057   0.993   0.773   1.026   1.189   1.226   1.204   1.137   1.038   1.122   0.849   1.087   1.273   1.008   0.907   1.120
   268.97    1.116   1.233   0.881   0.697   0.917   1.073   1.174   1.369   1.297   1.386   1.453   1.439   1.635   1.231   0.925   0.982   1.302   1.130   0.954   0.995   0.961   0.825   0.865   0.981   1.126   1.283   1.223   1.308   1.065   1.095   1.162   1.217   1.006   1.086   1.086   0.929   1.038   0.880   1.142   1.080   1.092   0.915   1.160   1.027   1.045   1.307   1.072   0.832   0.997   0.902   1.279   0.813   0.915   1.174   1.394   1.208   1.241   1.123   1.437   1.320   1.542   1.598   1.072   1.190   1.285   0.940   1.320   1.216   1.592   1.440   1.355   1.468   1.146   1.190   1.292   1.153   1.243   1.335   1.408   1.528   1.469   1.579   1.442   1.569   1.612   1.579   1.673   1.703   1.611   1.653   1.607   1.261   1.416   1.152   0.990   0.854   1.020   1.233   1.144   0.979   1.206   0.891   1.074   1.056   1.183   1.239   1.224   1.107   1.067   1.052   0.949   0.967   1.027
   258.62    0.863   0.973   1.225   1.170   1.254   1.367   1.148   0.999   1.104   1.188   1.396   1.449   1.435   1.243   0.878   0.955   1.096   1.146   1.006   0.814   1.157   0.893   0.840   0.982   0.890   1.130   1.003   1.092   1.041   1.182   1.026   1.068   1.032   1.055   0.898   1.124   1.061   1.068   1.283   1.389   1.002   1.103   1.002   1.259   1.492   1.191   0.942   0.849   1.040   1.241   1.522   1.177   1.053   1.104   1.318   1.389   1.212   1.106   1.312   1.171   1.374   1.304   1.091   0.851   1.069   1.638   1.482   1.597   1.586   1.120   1.294   1.083   1.210   1.283   1.624   1.655   1.515   1.627   1.260   1.426   1.305   1.637   1.729   1.564   1.368   1.089   1.448   1.692   1.640   1.784   1.398   1.212   1.059   1.326   1.047   1.009   0.927   0.901   1.016   0.999   1.529   1.324   1.251   0.971   1.394   1.414   1.247   1.553   1.538   1.419   0.933   0.850   0.986
   248.28    0.998   1.084   1.405   1.373   1.053   1.260   1.187   1.132   1.205   1.184   1.275   1.442   1.292   1.366   1.256   1.015   0.863   1.052   0.771   0.949   0.954   1.171   0.881   1.236   1.358   1.129   1.074   0.762   0.736   1.051   0.942   0.928   1.069   1.124   1.062   0.965   1.069   1.300   0.919   0.937   1.221   1.390   1.049   1.307   1.116   1.110   1.048   1.101   1.260   1.252   1.373   1.167   0.941   0.920   1.304   0.987   1.037   1.213   0.935   1.040   1.256   1.195   0.861   0.937   1.107   1.468   1.659   1.779   1.573   1.403   1.114   1.141   1.313   1.296   1.598   1.562   1.728   1.651   1.345   1.457   1.757   1.503   1.603   1.703   1.246   1.127   1.190   1.393   1.615   1.575   1.490   1.326   0.836   1.058   1.175   1.142   0.955   0.866   1.063   1.271   1.488   1.667   1.587   1.547   1.385   1.728   1.716   1.556   1.507   1.078   1.249   0.995   0.936
   237.93    0.980   1.011   1.299   1.308   1.382   0.967   1.247   1.457   1.474   1.164   0.965   1.198   1.589   1.466   1.214   1.001   1.165   1.068   0.997   0.989   1.065   1.096   1.082   0.898   1.195   1.080   0.920   0.961   0.900   1.131   0.897   1.085   1.017   1.090   1.178   1.121   1.394   1.103   1.058   0.869   1.107   1.351   1.053   1.241   1.291   0.975   1.213   1.240   1.158   1.290   0.938   1.070   1.136   1.258   1.013   1.330   1.253   1.012   1.489   1.126   1.071   0.935   1.116   1.293   1.146   1.085   1.414   1.689   1.372   1.597   1.325   1.067   0.991   0.965   1.416   1.479   1.663   1.770   1.682   1.899   2.307   2.131   1.687   1.283   1.413   1.395   1.572   1.262   1.198   1.367   1.240   1.023   1.029   1.119   1.113   1.092   1.043   1.068   1.089   0.996   1.265   1.549   1.612   1.494   1.674   1.700   1.854   1.699   1.379   1.118   0.991   1.042   0.768
   227.59    0.995   1.025   1.149   1.281   1.319   1.038   1.188   1.203   1.304   1.146   1.068   1.316   1.377   1.361   1.351   1.188   0.936   1.051   1.122   1.279   1.047   1.190   0.927   0.767   1.097   1.168   0.875   1.142   1.258   1.176   1.337   0.980   0.991   1.116   1.249   1.380   1.559   1.317   1.345   1.096   1.188   1.306   1.151   1.081   1.050   1.185   0.935   0.931   1.266   1.388   1.287   1.237   1.423   1.205   1.238   1.204   1.216   1.210   1.129   1.088   1.155   0.916   1.283   1.460   1.320   1.027   1.312   1.582   1.404   1.120   1.553   1.274   1.383   1.270   1.158   1.204   1.481   1.885   2.079   2.305   2.314   1.638   1.569   1.880   1.430   1.479   1.575   1.009   1.231   1.348   1.119   0.997   1.003   1.208   1.262   1.424   1.191   1.302   1.199   1.092   1.150   1.393   1.212   1.448   1.866   1.963   1.915   1.435   1.310   0.866   0.832   1.118   1.176
   217.24    1.008   1.150   1.261   1.103   1.230   0.868   1.083   1.077   1.290   1.226   1.071   0.896   0.916   1.032   0.967   1.190   1.125   1.216   1.150   1.027   1.064   1.205   1.217   1.124   1.023   1.063   0.905   0.869   1.423   1.633   1.064   0.892   1.103   1.112   1.124   1.090   1.334   1.445   1.323   0.983   1.014   1.103   0.984   0.997   1.200   0.950   0.959   0.913   1.106   1.004   1.122   1.476   1.585   1.470   1.353   1.046   1.172   0.912   0.874   1.141   0.956   1.153   1.226   1.177   1.220   0.838   1.048   1.768   1.469   1.567   1.521   1.127   0.972   1.342   1.339   1.143   1.380   1.680   1.989   2.028   1.999   1.509   1.411   1.632   1.648   1.291   1.292   1.280   1.137   1.091   1.151   1.382   1.198   1.352   1.325   1.247   1.325   1.196   1.186   1.250   1.419   1.317   0.883   1.353   1.617   1.625   1.559   1.375   1.240   1.029   0.831   1.254   1.145
   206.90    0.991   0.968   1.057   1.381   1.167   0.929   1.009   1.159   1.147   1.518   1.575   1.261   1.160   0.911   1.043   1.302   1.388   1.039   1.002   1.091   0.983   0.971   1.045   0.999   0.932   0.898   0.905   1.296   1.523   1.342   1.411   1.151   1.075   0.928   0.883   1.196   1.245   1.057   1.265   1.032   0.968   1.138   0.940   1.027   1.044   1.088   0.968   1.084   0.882   0.894   1.072   1.098   1.582   1.231   1.227   1.110   1.134   1.057   1.057   1.357   1.071   1.122   0.976   0.930   0.794   0.950   1.512   1.835   1.657   1.524   1.369   0.982   1.318   1.481   1.093   1.168   1.431   1.497   1.525   1.673   1.694   1.586   1.454   1.582   1.156   1.383   1.219   1.116   1.269   1.061   1.616   1.326   1.333   1.050   1.183   1.062   1.262   1.197   1.308   1.223   1.222   0.963   1.017   1.223   1.463   1.625   1.591   1.704   1.355   1.068   1.213   1.655   1.705
   196.55    0.871   0.912   1.161   1.212   1.126   0.897   0.925   1.030   1.209   1.416   1.259   1.115   1.122   1.082   1.369   1.186   1.143   1.140   0.977   1.358   1.332   0.977   1.038   0.972   0.952   1.040   0.855   1.066   1.180   1.366   1.428   1.349   1.012   1.189   0.738   0.857   1.456   1.545   1.136   0.894   0.975   1.090   0.876   0.990   0.905   0.998   1.049   1.067   0.972   1.025   0.817   1.140   1.226   1.374   1.238   1.133   1.064   1.276   1.115   1.192   1.329   1.177   1.166   1.106   1.416   1.164   1.488   1.716   1.744   1.595   1.352   1.067   1.374   1.321   0.801   1.137   1.136   1.255   1.115   1.141   1.226   1.443   1.349   1.525   1.371   1.326   0.993   1.110   1.073   1.240   1.465   1.423   1.060   1.115   0.798   0.906   0.984   1.122   1.055   1.002   1.169   1.171   1.340   1.043   1.051   1.401   1.319   1.514   1.274   0.909   1.059   1.679   1.935
   186.21    0.985   1.082   1.137   1.213   1.096   0.860   1.039   1.188   0.994   0.907   1.362   1.152   1.232   1.184   1.525   1.475   1.668   1.385   1.350   1.516   1.412   1.399   1.139   1.140   1.134   1.055   0.674   1.087   1.277   1.360   1.180   0.988   0.936   1.132   1.280   1.194   1.456   1.728   1.127   1.163   1.200   1.113   0.864   1.122   0.913   0.967   1.247   1.043   0.882   1.073   1.340   1.284   1.258   1.056   0.994   1.181   1.235   1.159   1.363   1.406   1.187   0.978   1.052   1.596   1.326   1.303   1.167   1.521   1.639   1.262   1.303   1.297   1.270   1.044   0.982   1.077   1.314   1.076   0.770   0.907   1.143   0.856   1.015   1.471   1.404   1.425   0.883   0.936   0.775   0.876   0.961   0.960   0.809   0.779   0.804   0.882   0.934   1.195   1.178   0.822   1.067   1.199   1.342   1.342   1.172   1.533   1.750   1.481   1.061   1.022   1.336   1.692   1.690
   175.86    1.123   0.831   1.034   0.891   1.012   1.017   1.053   1.211   1.207   1.492   1.627   1.309   0.895   1.355   1.495   1.387   1.498   1.571   1.583   1.517   1.208   1.459   1.449   1.103   1.061   0.950   1.031   0.943   0.998   1.101   1.259   0.895   0.911   1.106   1.234   1.406   1.421   1.470   1.217   0.922   0.989   1.168   0.843   1.072   1.022   1.090   1.197   1.360   0.953   1.131   0.935   1.042   0.974   1.134   1.094   1.272   1.345   1.003   1.223   1.251   0.975   1.142   1.237   1.619   1.800   2.008   1.479   1.537   1.015   1.341   1.270   1.043   1.452   1.490   1.559   1.125   1.287   1.285   0.960   0.954   0.924   1.105   1.507   1.585   1.188   1.359   1.043   0.812   1.029   0.797   1.052   1.226   1.246   1.367   0.761   0.888   0.992   1.113   1.370   1.057   1.385   1.157   1.379   1.524   1.813   1.500   1.573   1.586   1.043   1.009   1.392   1.543   1.713
   165.52    0.839   1.224   0.763   0.936   1.046   0.956   0.733   1.053   1.380   1.633   1.556   1.293   1.399   1.227   1.394   1.206   1.132   1.240   1.408   1.030   1.036   1.120   1.087   1.092   1.230   1.017   1.090   0.781   0.930   0.854   1.031   1.245   0.809   0.860   1.133   0.962   1.141   1.350   1.429   1.616   1.340   1.026   1.015   1.257   1.051   1.236   1.166   1.262   0.933   0.970   0.842   1.207   1.262   1.113   0.942   1.082   1.306   1.303   1.440   1.178   1.412   1.241   1.661   1.825   1.789   1.741   1.200   1.293   1.016   1.114   0.980   1.230   1.400   1.292   1.617   1.559   1.321   1.284   0.887   1.048   0.895   1.184   1.430   1.525   1.300   1.082   1.196   1.334   1.020   1.001   1.082   1.111   1.159   1.403   1.061   0.811   0.898   1.025   1.288   1.101   1.314   1.170   1.414   1.630   1.374   1.501   1.325   1.419   1.302   1.574   1.678   1.616   1.668
   155.17    1.052   1.116   1.109   1.148   0.837   0.876   1.129   1.387   1.016   1.528   1.516   1.663   1.785   1.602   1.365   1.103   1.194   1.101   1.222   1.297   1.254   1.063   0.918   0.982   1.124   1.277   0.861   0.921   0.897   0.890   0.815   0.865   0.893   0.998   0.974   1.096   1.144   0.951   1.136   1.223   1.273   1.064   0.794   1.034   1.153   0.891   0.892   0.798   0.965   1.125   1.035   1.237   1.160   0.966   1.271   1.095   1.585   1.667   1.978   1.946   1.386   1.684   1.571   1.706   1.448   1.498   1.220   1.194   1.108   0.910   0.859   1.120   1.225   1.350   1.312   1.150   1.265   1.146   0.742   0.857   1.221   1.303   1.358   1.347   1.582   1.649   1.325   1.110   1.399   1.175   0.998   1.340   1.141   1.332   0.975   0.955   1.003   1.211   1.440   1.448   1.202   1.055   1.221   1.168   1.097   1.410   1.597   1.411   1.394   1.465   1.694   1.287   1.379
   144.83    0.996   0.959   1.193   1.173   1.239   1.206   1.051   1.065   1.250   1.520   1.528   1.898   1.514   1.891   1.433   1.355   1.055   1.429   1.322   1.283   0.761   1.024   1.151   1.131   1.076   1.049   1.000   1.100   1.003   1.115   1.078   1.136   1.033   1.211   0.951   0.818   0.854   0.984   1.267   1.391   1.255   1.066   0.878   0.900   1.021   0.871   1.051   1.055   1.033   1.330   1.291   1.201   1.496   1.272   1.454   1.327   1.575   1.729   1.943   1.613   1.375   1.522   1.350   1.734   1.690   1.022   0.971   1.009   1.190   1.004   0.920   1.134   1.000   1.116   1.054   1.282   1.153   0.993   1.021   0.934   1.087   1.223   1.265   1.058   1.190   1.163   1.301   1.293   1.404   1.352   0.937   1.342   1.129   1.189   1.216   1.244   1.361   1.469   1.364   1.348   1.418   1.238   1.065   0.973   1.056   1.210   1.512   1.120   1.150   1.608   1.744   1.484   1.085
   134.48    0.887   1.169   1.089   1.261   1.207   1.028   1.118   1.219   1.145   1.511   1.711   1.859   1.660   1.869   1.541   1.686   1.781   1.883   1.212   1.168   1.015   1.022   0.812   0.964   1.229   1.246   0.983   1.024   0.996   0.928   1.119   1.159   1.084   1.175   1.069   0.941   1.049   0.970   1.199   1.183   1.259   0.975   1.068   0.946   1.121   0.972   0.972   1.026   0.951   1.244   1.378   1.076   1.261   1.493   1.214   1.391   1.211   1.687   1.964   1.492   1.486   1.732   1.776   1.647   1.343   1.176   1.048   0.922   1.238   1.129   1.255   1.339   0.965   0.986   0.915   0.975   1.084   0.798   0.855   1.310   1.533   1.240   1.010   1.038   0.949   0.972   1.056   1.226   1.048   1.041   1.231   1.259   1.054   0.959   1.266   1.787   1.529   1.947   2.121   1.529   1.171   0.993   1.019   1.134   1.027   1.351   1.470   1.182   1.126   1.638   1.782   1.185   1.138
   124.14    1.290   1.366   1.178   1.193   0.864   1.182   1.130   1.021   1.459   1.522   1.631   1.508   1.436   1.756   1.690   1.526   1.635   1.882   1.227   1.059   0.897   0.903   1.042   1.381   1.457   1.097   1.002   0.890   0.965   0.852   0.891   0.946   1.027   1.190   0.976   1.030   1.173   1.181   1.108   0.849   1.081   1.275   1.105   1.016   1.085   1.118   1.089   1.075   1.160   1.258   1.072   1.123   1.666   1.438   1.379   1.316   1.302   1.820   1.686   1.650   1.818   1.693   1.504   0.977   1.084   1.453   1.115   1.186   1.314   1.401   1.558   1.062   1.186   0.977   1.353   1.051   1.289   1.124   1.210   1.239   1.346   1.262   0.847   0.965   0.810   0.912   1.061   0.925   0.820   0.963   1.391   1.344   1.357   1.514   1.368   1.458   1.549   1.962   2.134   1.558   1.257   1.233   0.951   1.100   1.118   1.324   1.383   1.438   1.507   1.730   1.804   1.308   1.294
   113.79    1.165   1.433   1.126   1.150   1.097   1.260   1.412   1.390   1.510   1.116   1.234   1.516   1.808   1.893   1.986   1.912   1.962   2.003   1.134   1.432   1.084   1.363   1.067   1.313   1.163   1.425   1.093   0.788   1.078   1.253   1.377   1.080   1.152   1.134   1.205   1.339   1.271   0.934   0.863   0.989   1.338   1.168   1.551   1.670   1.183   0.891   1.118   1.021   1.104   1.220   1.277   1.678   1.958   1.599   1.349   1.512   1.517   1.777   1.905   1.635   1.572   1.206   1.195   0.840   1.035   1.279   1.599   1.128   1.457   1.230   1.273   1.580   1.527   1.559   1.392   1.137   1.336   1.571   1.569   1.103   0.989   1.102   0.956   0.944   1.143   0.850   0.961   0.917   1.019   1.727   1.468   1.298   1.280   1.283   1.712   1.147   1.666   1.857   1.898   1.592   1.671   1.663   1.148   0.915   1.138   1.303   1.772   1.412   1.887   2.085   1.558   1.730   1.128
   103.45    1.028   1.279   1.063   0.859   1.042   1.128   1.191   0.928   1.288   0.991   1.301   1.312   1.427   1.445   1.440   1.586   1.701   1.724   1.189   1.075   1.436   1.524   1.590   1.275   1.280   1.395   1.384   0.934   1.050   1.080   1.354   1.196   1.062   0.991   1.467   1.176   1.052   1.128   0.856   1.142   1.077   1.186   1.566   1.566   1.260   1.023   0.985   1.140   1.188   1.273   1.124   1.448   1.852   1.810   1.476   1.251   1.329   1.509   1.373   1.590   1.498   1.269   0.978   1.064   0.954   1.468   1.374   1.376   1.765   1.414   1.316   1.708   1.495   1.895   1.697   1.408   0.990   1.212   1.508   1.317   0.958   0.901   1.052   0.964   0.877   0.799   1.088   1.401   1.554   1.809   1.768   1.490   1.351   1.502   1.592   1.168   1.615   1.295   1.696   1.446   1.627   1.390   0.981   1.055   1.172   1.288   1.699   1.691   1.547   1.577   1.419   1.492   1.260
    93.10    1.121   1.245   1.053   1.053   1.419   1.250   1.024   1.347   1.422   0.965   1.199   1.468   1.088   0.958   1.435   1.407   1.462   1.199   1.535   1.480   1.371   1.297   1.340   1.106   1.142   1.301   0.940   1.102   0.878   0.949   1.282   1.211   1.178   1.747   1.636   1.782   1.279   1.120   0.881   1.244   1.081   0.939   1.132   1.444   0.817   0.827   0.917   0.861   1.044   1.214   1.156   1.244   1.439   1.755   1.422   1.544   1.539   1.660   1.556   1.552   1.440   1.088   1.044   1.216   1.222   1.202   1.429   1.647   1.536   1.379   1.683   1.879   1.743   1.885   1.853   1.431   1.535   1.136   1.289   1.310   1.246   1.352   1.310   1.092   1.085   1.199   1.579   1.412   1.580   1.116   1.408   1.521   1.440   1.576   1.579   1.258   1.482   1.657   1.739   1.749   1.781   1.597   1.153   1.097   1.229   1.456   1.634   1.580   1.261   1.174   1.165   1.423   1.309
    82.76    1.536   1.141   1.272   1.464   1.480   1.625   1.662   1.161   1.060   0.975   1.233   1.388   1.079   0.981   1.395   1.274   1.498   1.434   1.535   1.591   1.448   1.482   1.157   1.100   0.943   0.962   0.949   1.165   1.258   0.949   1.233   1.392   1.437   1.811   2.000   1.791   1.294   1.089   0.939   0.955   1.064   1.238   1.281   1.106   0.977   1.028   1.037   0.826   1.084   1.191   1.078   1.105   1.243   1.443   1.206   1.223   1.169   1.550   1.358   1.202   1.257   0.786   0.951   0.963   1.455   1.801   1.081   1.388   1.608   1.649   1.544   1.783   1.672   1.410   1.597   1.119   1.294   1.211   1.541   1.262   1.313   1.469   1.419   1.364   1.586   1.677   1.662   1.288   1.351   1.426   1.428   1.580   1.495   1.468   1.068   1.355   1.305   1.469   1.776   1.992   1.543   1.963   1.828   1.182   1.393   1.027   1.363   1.247   1.248   1.550   1.223   1.305   1.253
    72.41    1.416   1.141   1.612   2.056   2.135   2.007   1.280   0.961   1.106   1.275   1.116   1.248   1.064   1.374   1.552   1.382   1.692   1.547   1.592   1.452   1.218   1.057   1.150   0.918   1.037   0.899   1.183   1.241   1.118   1.389   1.241   1.090   1.040   1.424   1.583   1.534   1.181   0.976   1.014   1.187   1.464   1.450   1.268   1.297   0.845   1.057   0.965   1.265   1.632   1.125   0.757   1.049   1.127   1.153   1.001   1.010   1.043   1.381   1.001   1.277   1.140   0.862   0.933   1.072   1.619   1.831   1.476   1.207   1.317   1.363   1.523   1.566   1.559   1.796   1.474   1.476   1.513   1.406   1.417   1.294   1.176   1.472   1.758   1.838   1.615   1.307   1.441   0.969   1.303   0.964   1.243   1.448   1.117   1.135   1.224   1.436   1.203   1.560   1.793   1.604   1.667   1.730   1.596   1.398   1.001   1.129   1.329   1.414   1.231   1.244   1.085   1.101   0.929
    62.07    1.762   1.381   1.784   1.878   1.954   1.487   1.304   1.454   1.219   1.133   1.267   1.062   0.996   1.342   1.427   1.780   1.628   1.391   1.326   1.102   0.943   1.020   1.132   1.037   0.822   1.192   1.198   1.197   1.169   0.967   1.125   1.169   1.214   1.468   1.438   1.522   1.353   1.203   0.958   1.155   1.199   1.441   1.424   1.474   1.355   1.083   1.064   1.335   1.808   1.484   1.116   1.108   1.134   1.322   1.189   1.036   1.240   1.422   1.200   1.007   1.003   1.024   1.120   1.277   1.417   1.751   1.482   1.656   1.139   1.396   1.639   1.711   1.473   1.674   1.476   1.273   1.103   1.297   1.235   1.255   1.320   1.654   1.529   1.891   1.521   1.441   1.517   1.334   1.390   0.984   1.033   0.989   0.970   1.349   1.230   1.089   1.535   1.578   1.366   1.545   1.739   1.676   1.207   1.076   1.299   1.033   1.059   1.391   1.111   0.846   0.932   0.938   0.887
    51.72    1.615   1.820   1.818   1.220   1.632   2.002   1.692   1.726   1.848   1.426   1.276   1.685   1.621   1.701   1.702   2.087   1.434   1.194   1.421   1.131   0.818   1.005   0.977   0.852   1.010   0.950   1.162   1.121   1.036   0.948   1.027   1.144   1.187   1.175   1.164   1.062   1.250   1.484   1.284   1.240   1.670   1.205   1.001   1.519   1.616   1.270   1.578   1.857   1.915   1.503   1.142   0.989   1.055   1.122   1.043   0.793   1.036   1.007   1.343   1.256   0.839   1.051   1.207   1.440   1.628   1.570   1.571   1.706   1.427   1.044   1.519   1.291   1.310   1.112   1.397   1.371   1.490   1.675   1.544   1.311   1.579   1.719   1.614   1.735   1.670   1.839   1.572   1.456   1.199   1.469   1.106   1.075   1.325   1.654   1.327   1.747   1.894   1.886   1.607   1.023   1.425   1.494   1.369   1.226   1.215   1.281   1.330   1.314   1.150   1.292   0.982   1.247   1.280
    41.38    1.321   1.660   1.169   1.402   1.789   1.651   1.769   1.633   1.472   1.601   1.278   1.434   1.657   2.151   2.287   2.152   1.688   1.705   1.525   1.080   1.022   0.951   0.918   1.070   1.189   1.154   1.192   1.274   0.945   0.882   1.143   1.008   1.242   1.170   1.005   1.481   1.363   1.447   1.487   1.326   1.438   1.654   1.470   1.641   1.944   1.494   1.287   1.768   1.711   1.197   1.101   1.196   0.989   0.850   1.094   1.213   1.427   1.322   1.434   1.112   1.319   1.227   1.117   1.022   1.375   1.144   1.133   1.147   1.459   1.598   1.322   1.312   1.002   1.092   1.140   0.951   1.243   1.505   1.466   1.450   1.314   1.430   1.311   1.703   1.688   2.265   1.747   1.740   1.863   1.383   1.247   1.557   1.537   1.772   1.632   1.863   1.788   1.802   1.412   1.106   1.394   1.526   1.347   1.048   1.302   1.055   1.052   1.140   0.885   1.068   1.026   1.539   1.584
    31.03    1.022   1.213   1.241   1.479   1.331   1.523   1.494   1.207   1.069   1.275   1.369   1.741   1.776   1.811   1.724   1.884   1.461   1.908   1.539   1.271   1.093   0.988   1.228   0.998   1.367   1.408   1.285   1.076   0.835   0.789   0.800   1.046   1.220   1.106   1.161   1.321   1.274   0.983   1.052   1.213   1.191   1.320   1.559   1.297   1.548   1.823   1.892   1.857   1.528   0.963   1.202   1.121   1.341   1.260   0.983   1.223   1.422   1.461   1.310   1.601   1.245   1.269   1.393   0.916   1.037   1.038   0.980   1.109   0.940   1.409   1.252   1.183   0.927   1.231   1.322   1.082   0.996   1.208   1.382   0.996   1.610   1.922   1.646   1.509   1.858   2.099   2.079   1.648   1.700   1.406   1.357   1.744   1.837   1.952   1.942   1.602   1.909   1.508   1.416   1.604   1.348   1.526   0.971   1.020   0.963   1.117   1.316   1.338   1.347   1.201   1.649   1.717   1.714
    20.69    0.818   1.111   1.196   1.333   1.008   1.188   1.443   1.154   1.386   1.340   1.642   1.678   1.393   1.488   1.324   1.595   1.585   1.773   1.829   2.211   1.580   1.360   1.269   1.239   1.403   1.428   0.912   0.982   1.001   0.972   0.845   1.028   1.073   0.892   0.808   0.915   1.005   1.042   1.062   0.884   1.034   1.127   1.239   1.423   1.576   1.348   1.612   1.745   1.308   1.011   1.103   1.122   1.308   1.022   1.127   1.216   1.256   1.030   1.192   1.232   1.034   0.882   1.071   0.824   0.861   1.135   1.247   1.031   1.374   1.432   1.248   1.464   1.093   1.229   1.027   1.352   0.925   0.995   1.203   1.081   1.459   1.725   1.671   1.317   1.452   1.874   1.840   1.296   1.005   1.252   1.492   1.579   1.730   1.468   1.392   1.343   1.462   1.698   1.496   1.683   1.638   1.618   1.184   0.880   0.922   0.945   1.217   1.261   1.451   1.411   1.530   1.471   1.548
    10.34    1.076   1.216   1.463   1.292   1.532   1.553   1.568   1.219   1.343   1.747   1.850   1.631   1.111   1.292   1.212   1.181   1.548   1.669   1.883   2.130   1.733   1.862   1.595   1.490   1.299   1.256   0.817   0.834   0.933   1.026   0.880   0.941   0.918   0.995   0.936   0.960   0.904   1.051   1.196   1.123   1.090   0.916   1.059   1.100   1.296   1.293   1.282   1.362   1.109   1.060   0.836   1.036   1.280   1.349   1.038   1.059   1.425   0.953   1.070   0.878   0.976   1.282   0.936   1.225   0.970   1.169   1.139   1.300   1.071   1.567   1.213   1.258   1.083   1.234   0.990   0.972   1.007   1.118   0.990   0.882   1.179   1.366   1.188   1.133   1.684   1.737   1.817   1.320   1.130   1.467   1.240   1.472   1.387   1.199   1.321   1.359   1.573   1.299   1.478   1.632   1.702   1.425   1.512   1.173   1.202   1.418   1.236   1.054   1.508   1.320   1.720   1.115   1.140
     0.00    1.268   1.363   1.369   1.640   1.399   1.350   1.108   1.268   1.469   1.432   1.553   1.381   1.347   0.957   1.173   1.294   1.462   1.367   1.579   1.746   1.880   1.574   1.805   1.524   1.032   1.193   1.014   1.254   1.127   1.091   0.996   1.006   0.894   1.054   0.892   0.907   0.799   0.979   1.044   0.983   1.027   0.904   0.999   1.275   1.365   1.040   1.177   1.163   0.886   1.118   1.100   1.109   1.291   1.410   1.246   0.962   1.314   1.364   1.106   1.065   1.096   1.337   1.189   1.523   1.244   1.049   1.114   1.337   1.414   1.461   1.592   1.133   0.865   0.957   1.119   0.999   0.837   0.961   0.856   1.045   0.981   1.153   1.269   1.520   1.701   1.632   1.598   1.072   1.405   1.336   1.501   1.445   1.631   1.243   1.082   1.200   1.149   1.153   1.462   1.157   1.481   1.627   1.380   1.571   0.944   1.030   1.159   1.428   1.664   1.675   1.775   1.176   0.902

   Height   Standard deviation at grid points for the v component:
   300.00    1.199   1.199   1.199   1.199   1.199   1.199   1.199   1.199   1.199   1.199   1.199   1.199   1.199   1.199   1.199   1.199   1.199   1.199   1.199   1.199   1.199   1.199   1.199   1.199   1.199   1.199   1.199   1.199   1.199   1.199   1.199   1.199   1.199   1.199   1.199   1.199   1.199   1.199   1.199   1.199   1.199   1.199   1.199   1.199   1.199   1.199   1.199   1.199   1.199   1.199   1.199   1.199   1.199   1.199   1.199   1.199   1.199   1.199   1.199   1.199   1.199   1.199   1.199   1.199   1.199   1.199   1.199   1.199   1.199   1.199   1.199   1.199   1.199   1.199   1.199   1.199   1.199   1.199   1.199   1.199   1.199   1.199   1.199   1.199   1.199   1.199   1.199   1.199   1.199   1.199   1.199   1.199   1.199   1.199   1.199   1.199   1.199   1.199   1.199   1.199   1.199   1.199   1.199   1.199   1.199   1.199   1.199   1.199   1.199   1.199   1.199   1.199   1.199
   289.66    1.199   1.199   1.199   1.199   1.199   1.199   1.199   1.199   1.199   1.199   1.199   1.199   1.199   1.199   1.199   1.199   1.199   1.199   1.199   1.199   1.199   1.199   1.199   1.199   1.199   1.199   1.199   1.199   1.199   1.199   1.199   1.199   1.199   1.199   1.199   1.199   1.199   1.199   1.199   1.199   1.199   1.199   1.199   1.199   1.199   1.199   1.199   1.199   1.199   1.199   1.199   1.199   1.199   1.199   1.199   1.199   1.199   1.199   1.199   1.199   1.199   1.199   1.199   1.199   1.199   1.199   1.199   1.199   1.199   1.199   1.199   1.199   1.199   1.199   1.199   1.199   1.199   1.199   1.199   1.199   1.199   1.199   1.199   1.199   1.199   1.199   1.199   1.199   1.199   1.199   1.199   1.199   1.199   1.199   1.199   1.199   1.199   1.199   1.199   1.199   1.199   1.199   1.199   1.199   1.199   1.199   1.199   1.199   1.199   1.199   1.199   1.199   1.199
   279.31    1.199   1.199   1.199   1.199   1.199   1.199   1.199   1.199   1.199   1.199   1.199   1.199   1.199   1.199   1.199   1.199   1.199   1.199   1.199   1.199   1.199   1.199   1.199   1.199   1.199   1.199   1.199   1.199   1.199   1.199   1.199   1.199   1.199   1.199   1.199   1.199   1.199   1.199   1.199   1.199   1.199   1.199   1.199   1.199   1.199   1.199   1.199   1.199   1.199   1.199   1.199   1.199   1.199   1.199   1.199   1.199   1.199   1.199   1.199   1.199   1.199   1.199   1.199   1.199   1.199   1.199   1.199   1.199   1.199   1.199   1.199   1.199   1.199   1.199   1.199   1.199   1.199   1.199   1.199   1.199   1.199   1.199   1.199   1.199   1.199   1.199   1.199   1.199   1.199   1.199   1.199   1.199   1.199   1.199   1.199   1.199   1.199   1.199   1.199   1.199   1.199   1.199   1.199   1.199   1.199   1.199   1.199   1.199   1.199   1.199   1.199   1.199   1.199
   268.97    1.199   1.199   1.199   1.199   1.199   1.199   1.199   1.199   1.199   1.199   1.199   1.199   1.199   1.199   1.199   1.199   1.199   1.199   1.199   1.199   1.199   1.199   1.199   1.199   1.199   1.199   1.199   1.199   1.199   1.199   1.199   1.199   1.199   1.199   1.199   1.199   1.199   1.199   1.199   1.199   1.199   1.199   1.199   1.199   1.199   1.199   1.199   1.199   1.199   1.199   1.199   1.199   1.199   1.199   1.199   1.199   1.199   1.199   1.199   1.199   1.199   1.199   1.199   1.199   1.199   1.199   1.199   1.199   1.199   1.199   1.199   1.199   1.199   1.199   1.199   1.199   1.199   1.199   1.199   1.199   1.199   1.199   1.199   1.199   1.199   1.199   1.199   1.199   1.199   1.199   1.199   1.199   1.199   1.199   1.199   1.199   1.199   1.199   1.199   1.199   1.199   1.199   1.199   1.199   1.199   1.199   1.199   1.199   1.199   1.199   1.199   1.199   1.199
   258.62    1.199   1.199   1.199   1.199   1.199   1.199   1.199   1.199   1.199   1.199   1.199   1.199   1.199   1.199   1.199   1.199   1.199   1.199   1.199   1.199   1.199   1.199   1.199   1.199   1.199   1.199   1.199   1.199   1.199   1.199   1.199   1.199   1.199   1.199   1.199   1.199   1.199   1.199   1.199   1.199   1.199   1.199   1.199   1.199   1.199   1.199   1.199   1.199   1.199   1.199   1.199   1.199   1.199   1.199   1.199   1.199   1.199   1.199   1.199   1.199   1.199   1.199   1.199   1.199   1.199   1.199   1.199   1.199   1.199   1.199   1.199   1.199   1.199   1.199   1.199   1.199   1.199   1.199   1.199   1.199   1.199   1.199   1.199   1.199   1.199   1.199   1.199   1.199   1.199   1.199   1.199   1.199   1.199   1.199   1.199   1.199   1.199   1.199   1.199   1.199   1.199   1.199   1.199   1.199   1.199   1.199   1.199   1.199   1.199   1.199   1.199   1.199   1.199
   248.28    1.199   1.199   1.199   1.199   1.199   1.199   1.199   1.199   1.199   1.199   1.199   1.199   1.199   1.199   1.199   1.199   1.199   1.199   1.199   1.199   1.199   1.199   1.199   1.199   1.199   1.199   1.199   1.199   1.199   1.199   1.199   1.199   1.199   1.199   1.199   1.199   1.199   1.199   1.199   1.199   1.199   1.199   1.199   1.199   1.199   1.199   1.199   1.199   1.199   1.199   1.199   1.199   1.199   1.199   1.199   1.199   1.199   1.199   1.199   1.199   1.199   1.199   1.199   1.199   1.199   1.199   1.199   1.199   1.199   1.199   1.199   1.199   1.199   1.199   1.199   1.199   1.199   1.199   1.199   1.199   1.199   1.199   1.199   1.199   1.199   1.199   1.199   1.199   1.199   1.199   1.199   1.199   1.199   1.199   1.199   1.199   1.199   1.199   1.199   1.199   1.199   1.199   1.199   1.199   1.199   1.199   1.199   1.199   1.199   1.199   1.199   1.199   1.199
   237.93    1.199   1.199   1.199   1.199   1.199   1.199   1.199   1.199   1.199   1.199   1.199   1.199   1.199   1.199   1.199   1.199   1.199   1.199   1.199   1.199   1.199   1.199   1.199   1.199   1.199   1.199   1.199   1.199   1.199   1.199   1.199   1.199   1.199   1.199   1.199   1.199   1.199   1.199   1.199   1.199   1.199   1.199   1.199   1.199   1.199   1.199   1.199   1.199   1.199   1.199   1.199   1.199   1.199   1.199   1.199   1.199   1.199   1.199   1.199   1.199   1.199   1.199   1.199   1.199   1.199   1.199   1.199   1.199   1.199   1.199   1.199   1.199   1.199   1.199   1.199   1.199   1.199   1.199   1.199   1.199   1.199   1.199   1.199   1.199   1.199   1.199   1.199   1.199   1.199   1.199   1.199   1.199   1.199   1.199   1.199   1.199   1.199   1.199   1.199   1.199   1.199   1.199   1.199   1.199   1.199   1.199   1.199   1.199   1.199   1.199   1.199   1.199   1.199
   227.59    1.199   1.199   1.199   1.199   1.199   1.199   1.199   1.199   1.199   1.199   1.199   1.199   1.199   1.199   1.199   1.199   1.199   1.199   1.199   1.199   1.199   1.199   1.199   1.199   1.199   1.199   1.199   1.199   1.199   1.199   1.199   1.199   1.199   1.199   1.199   1.199   1.199   1.199   1.199   1.199   1.199   1.199   1.199   1.199   1.199   1.199   1.199   1.199   1.199   1.199   1.199   1.199   1.199   1.199   1.199   1.199   1.199   1.199   1.199   1.199   1.199   1.199   1.199   1.199   1.199   1.199   1.199   1.199   1.199   1.199   1.199   1.199   1.199   1.199   1.199   1.199   1.199   1.199   1.199   1.199   1.199   1.199   1.199   1.199   1.199   1.199   1.199   1.199   1.199   1.199   1.199   1.199   1.199   1.199   1.199   1.199   1.199   1.199   1.199   1.199   1.199   1.199   1.199   1.199   1.199   1.199   1.199   1.199   1.199   1.199   1.199   1.199   1.199
   217.24    1.199   1.199   1.199   1.199   1.199   1.199   1.199   1.199   1.199   1.199   1.199   1.199   1.199   1.199   1.199   1.199   1.199   1.199   1.199   1.199   1.199   1.199   1.199   1.199   1.199   1.199   1.199   1.199   1.199   1.199   1.199   1.199   1.199   1.199   1.199   1.199   1.199   1.199   1.199   1.199   1.199   1.199   1.199   1.199   1.199   1.199   1.199   1.199   1.199   1.199   1.199   1.199   1.199   1.199   1.199   1.199   1.199   1.199   1.199   1.199   1.199   1.199   1.199   1.199   1.199   1.199   1.199   1.199   1.199   1.199   1.199   1.199   1.199   1.199   1.199   1.199   1.199   1.199   1.199   1.199   1.199   1.199   1.199   1.199   1.199   1.199   1.199   1.199   1.199   1.199   1.199   1.199   1.199   1.199   1.199   1.199   1.199   1.199   1.199   1.199   1.199   1.199   1.199   1.199   1.199   1.199   1.199   1.199   1.199   1.199   1.199   1.199   1.199
   206.90    1.199   1.199   1.199   1.199   1.199   1.199   1.199   1.199   1.199   1.199   1.199   1.199   1.199   1.199   1.199   1.199   1.199   1.199   1.199   1.199   1.199   1.199   1.199   1.199   1.199   1.199   1.199   1.199   1.199   1.199   1.199   1.199   1.199   1.199   1.199   1.199   1.199   1.199   1.199   1.199   1.199   1.199   1.199   1.199   1.199   1.199   1.199   1.199   1.199   1.199   1.199   1.199   1.199   1.199   1.199   1.199   1.199   1.199   1.199   1.199   1.199   1.199   1.199   1.199   1.199   1.199   1.199   1.199   1.199   1.199   1.199   1.199   1.199   1.199   1.199   1.199   1.199   1.199   1.199   1.199   1.199   1.199   1.199   1.199   1.199   1.199   1.199   1.199   1.199   1.199   1.199   1.199   1.199   1.199   1.199   1.199   1.199   1.199   1.199   1.199   1.199   1.199   1.199   1.199   1.199   1.199   1.199   1.199   1.199   1.199   1.199   1.199   1.199
   196.55    1.199   1.199   1.199   1.199   1.199   1.199   1.199   1.199   1.199   1.199   1.199   1.199   1.199   1.199   1.199   1.199   1.199   1.199   1.199   1.199   1.199   1.199   1.199   1.199   1.199   1.199   1.199   1.199   1.199   1.199   1.199   1.199   1.199   1.199   1.199   1.199   1.199   1.199   1.199   1.199   1.199   1.199   1.199   1.199   1.199   1.199   1.199   1.199   1.199   1.199   1.199   1.199   1.199   1.199   1.199   1.199   1.199   1.199   1.199   1.199   1.199   1.199   1.199   1.199   1.199   1.199   1.199   1.199   1.199   1.199   1.199   1.199   1.199   1.199   1.199   1.199   1.199   1.199   1.199   1.199   1.199   1.199   1.199   1.199   1.199   1.199   1.199   1.199   1.199   1.199   1.199   1.199   1.199   1.199   1.199   1.199   1.199   1.199   1.199   1.199   1.199   1.199   1.199   1.199   1.199   1.199   1.199   1.199   1.199   1.199   1.199   1.199   1.199
   186.21    1.199   1.199   1.199   1.199   1.199   1.199   1.199   1.199   1.199   1.199   1.199   1.199   1.199   1.199   1.199   1.199   1.199   1.199   1.199   1.199   1.199   1.199   1.199   1.199   1.199   1.199   1.199   1.199   1.199   1.199   1.199   1.199   1.199   1.199   1.199   1.199   1.199   1.199   1.199   1.199   1.199   1.199   1.199   1.199   1.199   1.199   1.199   1.199   1.199   1.199   1.199   1.199   1.199   1.199   1.199   1.199   1.199   1.199   1.199   1.199   1.199   1.199   1.199   1.199   1.199   1.199   1.199   1.199   1.199   1.199   1.199   1.199   1.199   1.199   1.199   1.199   1.199   1.199   1.199   1.199   1.199   1.199   1.199   1.199   1.199   1.199   1.199   1.199   1.199   1.199   1.199   1.199   1.199   1.199   1.199   1.199   1.199   1.199   1.199   1.199   1.199   1.199   1.199   1.199   1.199   1.199   1.199   1.199   1.199   1.199   1.199   1.199   1.199
   175.86    1.199   1.199   1.199   1.199   1.199   1.199   1.199   1.199   1.199   1.199   1.199   1.199   1.199   1.199   1.199   1.199   1.199   1.199   1.199   1.199   1.199   1.199   1.199   1.199   1.199   1.199   1.199   1.199   1.199   1.199   1.199   1.199   1.199   1.199   1.199   1.199   1.199   1.199   1.199   1.199   1.199   1.199   1.199   1.199   1.199   1.199   1.199   1.199   1.199   1.199   1.199   1.199   1.199   1.199   1.199   1.199   1.199   1.199   1.199   1.199   1.199   1.199   1.199   1.199   1.199   1.199   1.199   1.199   1.199   1.199   1.199   1.199   1.199   1.199   1.199   1.199   1.199   1.199   1.199   1.199   1.199   1.199   1.199   1.199   1.199   1.199   1.199   1.199   1.199   1.199   1.199   1.199   1.199   1.199   1.199   1.199   1.199   1.199   1.199   1.199   1.199   1.199   1.199   1.199   1.199   1.199   1.199   1.199   1.199   1.199   1.199   1.199   1.199
   165.52    1.199   1.199   1.199   1.199   1.199   1.199   1.199   1.199   1.199   1.199   1.199   1.199   1.199   1.199   1.199   1.199   1.199   1.199   1.199   1.199   1.199   1.199   1.199   1.199   1.199   1.199   1.199   1.199   1.199   1.199   1.199   1.199   1.199   1.199   1.199   1.199   1.199   1.199   1.199   1.199   1.199   1.199   1.199   1.199   1.199   1.199   1.199   1.199   1.199   1.199   1.199   1.199   1.199   1.199   1.199   1.199   1.199   1.199   1.199   1.199   1.199   1.199   1.199   1.199   1.199   1.199   1.199   1.199   1.199   1.199   1.199   1.199   1.199   1.199   1.199   1.199   1.199   1.199   1.199   1.199   1.199   1.199   1.199   1.199   1.199   1.199   1.199   1.199   1.199   1.199   1.199   1.199   1.199   1.199   1.199   1.199   1.199   1.199   1.199   1.199   1.199   1.199   1.199   1.199   1.199   1.199   1.199   1.199   1.199   1.199   1.199   1.199   1.199
   155.17    1.199   1.199   1.199   1.199   1.199   1.199   1.199   1.199   1.199   1.199   1.199   1.199   1.199   1.199   1.199   1.199   1.199   1.199   1.199   1.199   1.199   1.199   1.199   1.199   1.199   1.199   1.199   1.199   1.199   1.199   1.199   1.199   1.199   1.199   1.199   1.199   1.199   1.199   1.199   1.199   1.199   1.199   1.199   1.199   1.199   1.199   1.199   1.199   1.199   1.199   1.199   1.199   1.199   1.199   1.199   1.199   1.199   1.199   1.199   1.199   1.199   1.199   1.199   1.199   1.199   1.199   1.199   1.199   1.199   1.199   1.199   1.199   1.199   1.199   1.199   1.199   1.199   1.199   1.199   1.199   1.199   1.199   1.199   1.199   1.199   1.199   1.199   1.199   1.199   1.199   1.199   1.199   1.199   1.199   1.199   1.199   1.199   1.199   1.199   1.199   1.199   1.199   1.199   1.199   1.199   1.199   1.199   1.199   1.199   1.199   1.199   1.199   1.199
   144.83    1.199   1.199   1.199   1.199   1.199   1.199   1.199   1.199   1.199   1.199   1.199   1.199   1.199   1.199   1.199   1.199   1.199   1.199   1.199   1.199   1.199   1.199   1.199   1.199   1.199   1.199   1.199   1.199   1.199   1.199   1.199   1.199   1.199   1.199   1.199   1.199   1.199   1.199   1.199   1.199   1.199   1.199   1.199   1.199   1.199   1.199   1.199   1.199   1.199   1.199   1.199   1.199   1.199   1.199   1.199   1.199   1.199   1.199   1.199   1.199   1.199   1.199   1.199   1.199   1.199   1.199   1.199   1.199   1.199   1.199   1.199   1.199   1.199   1.199   1.199   1.199   1.199   1.199   1.199   1.199   1.199   1.199   1.199   1.199   1.199   1.199   1.199   1.199   1.199   1.199   1.199   1.199   1.199   1.199   1.199   1.199   1.199   1.199   1.199   1.199   1.199   1.199   1.199   1.199   1.199   1.199   1.199   1.199   1.199   1.199   1.199   1.199   1.199
   134.48    1.199   1.199   1.199   1.199   1.199   1.199   1.199   1.199   1.199   1.199   1.199   1.199   1.199   1.199   1.199   1.199   1.199   1.199   1.199   1.199   1.199   1.199   1.199   1.199   1.199   1.199   1.199   1.199   1.199   1.199   1.199   1.199   1.199   1.199   1.199   1.199   1.199   1.199   1.199   1.199   1.199   1.199   1.199   1.199   1.199   1.199   1.199   1.199   1.199   1.199   1.199   1.199   1.199   1.199   1.199   1.199   1.199   1.199   1.199   1.199   1.199   1.199   1.199   1.199   1.199   1.199   1.199   1.199   1.199   1.199   1.199   1.199   1.199   1.199   1.199   1.199   1.199   1.199   1.199   1.199   1.199   1.199   1.199   1.199   1.199   1.199   1.199   1.199   1.199   1.199   1.199   1.199   1.199   1.199   1.199   1.199   1.199   1.199   1.199   1.199   1.199   1.199   1.199   1.199   1.199   1.199   1.199   1.199   1.199   1.199   1.199   1.199   1.199
   124.14    1.199   1.199   1.199   1.199   1.199   1.199   1.199   1.199   1.199   1.199   1.199   1.199   1.199   1.199   1.199   1.199   1.199   1.199   1.199   1.199   1.199   1.199   1.199   1.199   1.199   1.199   1.199   1.199   1.199   1.199   1.199   1.199   1.199   1.199   1.199   1.199   1.199   1.199   1.199   1.199   1.199   1.199   1.199   1.199   1.199   1.199   1.199   1.199   1.199   1.199   1.199   1.199   1.199   1.199   1.199   1.199   1.199   1.199   1.199   1.199   1.199   1.199   1.199   1.199   1.199   1.199   1.199   1.199   1.199   1.199   1.199   1.199   1.199   1.199   1.199   1.199   1.199   1.199   1.199   1.199   1.199   1.199   1.199   1.199   1.199   1.199   1.199   1.199   1.199   1.199   1.199   1.199   1.199   1.199   1.199   1.199   1.199   1.199   1.199   1.199   1.199   1.199   1.199   1.199   1.199   1.199   1.199   1.199   1.199   1.199   1.199   1.199   1.199
   113.79    1.199   1.199   1.199   1.199   1.199   1.199   1.199   1.199   1.199   1.199   1.199   1.199   1.199   1.199   1.199   1.199   1.199   1.199   1.199   1.199   1.199   1.199   1.199   1.199   1.199   1.199   1.199   1.199   1.199   1.199   1.199   1.199   1.199   1.199   1.199   1.199   1.199   1.199   1.199   1.199   1.199   1.199   1.199   1.199   1.199   1.199   1.199   1.199   1.199   1.199   1.199   1.199   1.199   1.199   1.199   1.199   1.199   1.199   1.199   1.199   1.199   1.199   1.199   1.199   1.199   1.199   1.199   1.199   1.199   1.199   1.199   1.199   1.199   1.199   1.199   1.199   1.199   1.199   1.199   1.199   1.199   1.199   1.199   1.199   1.199   1.199   1.199   1.199   1.199   1.199   1.199   1.199   1.199   1.199   1.199   1.199   1.199   1.199   1.199   1.199   1.199   1.199   1.199   1.199   1.199   1.199   1.199   1.199   1.199   1.199   1.199   1.199   1.199
   103.45    1.199   1.199   1.199   1.199   1.199   1.199   1.199   1.199   1.199   1.199   1.199   1.199   1.199   1.199   1.199   1.199   1.199   1.199   1.199   1.199   1.199   1.199   1.199   1.199   1.199   1.199   1.199   1.199   1.199   1.199   1.199   1.199   1.199   1.199   1.199   1.199   1.199   1.199   1.199   1.199   1.199   1.199   1.199   1.199   1.199   1.199   1.199   1.199   1.199   1.199   1.199   1.199   1.199   1.199   1.199   1.199   1.199   1.199   1.199   1.199   1.199   1.199   1.199   1.199   1.199   1.199   1.199   1.199   1.199   1.199   1.199   1.199   1.199   1.199   1.199   1.199   1.199   1.199   1.199   1.199   1.199   1.199   1.199   1.199   1.199   1.199   1.199   1.199   1.199   1.199   1.199   1.199   1.199   1.199   1.199   1.199   1.199   1.199   1.199   1.199   1.199   1.199   1.199   1.199   1.199   1.199   1.199   1.199   1.199   1.199   1.199   1.199   1.199
    93.10    1.199   1.199   1.199   1.199   1.199   1.199   1.199   1.199   1.199   1.199   1.199   1.199   1.199   1.199   1.199   1.199   1.199   1.199   1.199   1.199   1.199   1.199   1.199   1.199   1.199   1.199   1.199   1.199   1.199   1.199   1.199   1.199   1.199   1.199   1.199   1.199   1.199   1.199   1.199   1.199   1.199   1.199   1.199   1.199   1.199   1.199   1.199   1.199   1.199   1.199   1.199   1.199   1.199   1.199   1.199   1.199   1.199   1.199   1.199   1.199   1.199   1.199   1.199   1.199   1.199   1.199   1.199   1.199   1.199   1.199   1.199   1.199   1.199   1.199   1.199   1.199   1.199   1.199   1.199   1.199   1.199   1.199   1.199   1.199   1.199   1.199   1.199   1.199   1.199   1.199   1.199   1.199   1.199   1.199   1.199   1.199   1.199   1.199   1.199   1.199   1.199   1.199   1.199   1.199   1.199   1.199   1.199   1.199   1.199   1.199   1.199   1.199   1.199
    82.76    1.199   1.199   1.199   1.199   1.199   1.199   1.199   1.199   1.199   1.199   1.199   1.199   1.199   1.199   1.199   1.199   1.199   1.199   1.199   1.199   1.199   1.199   1.199   1.199   1.199   1.199   1.199   1.199   1.199   1.199   1.199   1.199   1.199   1.199   1.199   1.199   1.199   1.199   1.199   1.199   1.199   1.199   1.199   1.199   1.199   1.199   1.199   1.199   1.199   1.199   1.199   1.199   1.199   1.199   1.199   1.199   1.199   1.199   1.199   1.199   1.199   1.199   1.199   1.199   1.199   1.199   1.199   1.199   1.199   1.199   1.199   1.199   1.199   1.199   1.199   1.199   1.199   1.199   1.199   1.199   1.199   1.199   1.199   1.199   1.199   1.199   1.199   1.199   1.199   1.199   1.199   1.199   1.199   1.199   1.199   1.199   1.199   1.199   1.199   1.199   1.199   1.199   1.199   1.199   1.199   1.199   1.199   1.199   1.199   1.199   1.199   1.199   1.199
    72.41    1.199   1.199   1.199   1.199   1.199   1.199   1.199   1.199   1.199   1.199   1.199   1.199   1.199   1.199   1.199   1.199   1.199   1.199   1.199   1.199   1.199   1.199   1.199   1.199   1.199   1.199   1.199   1.199   1.199   1.199   1.199   1.199   1.199   1.199   1.199   1.199   1.199   1.199   1.199   1.199   1.199   1.199   1.199   1.199   1.199   1.199   1.199   1.199   1.199   1.199   1.199   1.199   1.199   1.199   1.199   1.199   1.199   1.199   1.199   1.199   1.199   1.199   1.199   1.199   1.199   1.199   1.199   1.199   1.199   1.199   1.199   1.199   1.199   1.199   1.199   1.199   1.199   1.199   1.199   1.199   1.199   1.199   1.199   1.199   1.199   1.199   1.199   1.199   1.199   1.199   1.199   1.199   1.199   1.199   1.199   1.199   1.199   1.199   1.199   1.199   1.199   1.199   1.199   1.199   1.199   1.199   1.199   1.199   1.199   1.199   1.199   1.199   1.199
    62.07    1.199   1.199   1.199   1.199   1.199   1.199   1.199   1.199   1.199   1.199   1.199   1.199   1.199   1.199   1.199   1.199   1.199   1.199   1.199   1.199   1.199   1.199   1.199   1.199   1.199   1.199   1.199   1.199   1.199   1.199   1.199   1.199   1.199   1.199   1.199   1.199   1.199   1.199   1.199   1.199   1.199   1.199   1.199   1.199   1.199   1.199   1.199   1.199   1.199   1.199   1.199   1.199   1.199   1.199   1.199   1.199   1.199   1.199   1.199   1.199   1.199   1.199   1.199   1.199   1.199   1.199   1.199   1.199   1.199   1.199   1.199   1.199   1.199   1.199   1.199   1.199   1.199   1.199   1.199   1.199   1.199   1.199   1.199   1.199   1.199   1.199   1.199   1.199   1.199   1.199   1.199   1.199   1.199   1.199   1.199   1.199   1.199   1.199   1.199   1.199   1.199   1.199   1.199   1.199   1.199   1.199   1.199   1.199   1.199   1.199   1.199   1.199   1.199
    51.72    1.199   1.199   1.199   1.199   1.199   1.199   1.199   1.199   1.199   1.199   1.199   1.199   1.199   1.199   1.199   1.199   1.199   1.199   1.199   1.199   1.199   1.199   1.199   1.199   1.199   1.199   1.199   1.199   1.199   1.199   1.199   1.199   1.199   1.199   1.199   1.199   1.199   1.199   1.199   1.199   1.199   1.199   1.199   1.199   1.199   1.199   1.199   1.199   1.199   1.199   1.199   1.199   1.199   1.199   1.199   1.199   1.199   1.199   1.199   1.199   1.199   1.199   1.199   1.199   1.199   1.199   1.199   1.199   1.199   1.199   1.199   1.199   1.199   1.199   1.199   1.199   1.199   1.199   1.199   1.199   1.199   1.199   1.199   1.199   1.199   1.199   1.199   1.199   1.199   1.199   1.199   1.199   1.199   1.199   1.199   1.199   1.199   1.199   1.199   1.199   1.199   1.199   1.199   1.199   1.199   1.199   1.199   1.199   1.199   1.199   1.199   1.199   1.199
    41.38    1.199   1.199   1.199   1.199   1.199   1.199   1.199   1.199   1.199   1.199   1.199   1.199   1.199   1.199   1.199   1.199   1.199   1.199   1.199   1.199   1.199   1.199   1.199   1.199   1.199   1.199   1.199   1.199   1.199   1.199   1.199   1.199   1.199   1.199   1.199   1.199   1.199   1.199   1.199   1.199   1.199   1.199   1.199   1.199   1.199   1.199   1.199   1.199   1.199   1.199   1.199   1.199   1.199   1.199   1.199   1.199   1.199   1.199   1.199   1.199   1.199   1.199   1.199   1.199   1.199   1.199   1.199   1.199   1.199   1.199   1.199   1.199   1.199   1.199   1.199   1.199   1.199   1.199   1.199   1.199   1.199   1.199   1.199   1.199   1.199   1.199   1.199   1.199   1.199   1.199   1.199   1.199   1.199   1.199   1.199   1.199   1.199   1.199   1.199   1.199   1.199   1.199   1.199   1.199   1.199   1.199   1.199   1.199   1.199   1.199   1.199   1.199   1.199
    31.03    1.199   1.199   1.199   1.199   1.199   1.199   1.199   1.199   1.199   1.199   1.199   1.199   1.199   1.199   1.199   1.199   1.199   1.199   1.199   1.199   1.199   1.199   1.199   1.199   1.199   1.199   1.199   1.199   1.199   1.199   1.199   1.199   1.199   1.199   1.199   1.199   1.199   1.199   1.199   1.199   1.199   1.199   1.199   1.199   1.199   1.199   1.199   1.199   1.199   1.199   1.199   1.199   1.199   1.199   1.199   1.199   1.199   1.199   1.199   1.199   1.199   1.199   1.199   1.199   1.199   1.199   1.199   1.199   1.199   1.199   1.199   1.199   1.199   1.199   1.199   1.199   1.199   1.199   1.199   1.199   1.199   1.199   1.199   1.199   1.199   1.199   1.199   1.199   1.199   1.199   1.199   1.199   1.199   1.199   1.199   1.199   1.199   1.199   1.199   1.199   1.199   1.199   1.199   1.199   1.199   1.199   1.199   1.199   1.199   1.199   1.199   1.199   1.199
    20.69    1.199   1.199   1.199   1.199   1.199   1.199   1.199   1.199   1.199   1.199   1.199   1.199   1.199   1.199   1.199   1.199   1.199   1.199   1.199   1.199   1.199   1.199   1.199   1.199   1.199   1.199   1.199   1.199   1.199   1.199   1.199   1.199   1.199   1.199   1.199   1.199   1.199   1.199   1.199   1.199   1.199   1.199   1.199   1.199   1.199   1.199   1.199   1.199   1.199   1.199   1.199   1.199   1.199   1.199   1.199   1.199   1.199   1.199   1.199   1.199   1.199   1.199   1.199   1.199   1.199   1.199   1.199   1.199   1.199   1.199   1.199   1.199   1.199   1.199   1.199   1.199   1.199   1.199   1.199   1.199   1.199   1.199   1.199   1.199   1.199   1.199   1.199   1.199   1.199   1.199   1.199   1.199   1.199   1.199   1.199   1.199   1.199   1.199   1.199   1.199   1.199   1.199   1.199   1.199   1.199   1.199   1.199   1.199   1.199   1.199   1.199   1.199   1.199
    10.34    1.199   1.199   1.199   1.199   1.199   1.199   1.199   1.199   1.199   1.199   1.199   1.199   1.199   1.199   1.199   1.199   1.199   1.199   1.199   1.199   1.199   1.199   1.199   1.199   1.199   1.199   1.199   1.199   1.199   1.199   1.199   1.199   1.199   1.199   1.199   1.199   1.199   1.199   1.199   1.199   1.199   1.199   1.199   1.199   1.199   1.199   1.199   1.199   1.199   1.199   1.199   1.199   1.199   1.199   1.199   1.199   1.199   1.199   1.199   1.199   1.199   1.199   1.199   1.199   1.199   1.199   1.199   1.199   1.199   1.199   1.199   1.199   1.199   1.199   1.199   1.199   1.199   1.199   1.199   1.199   1.199   1.199   1.199   1.199   1.199   1.199   1.199   1.199   1.199   1.199   1.199   1.199   1.199   1.199   1.199   1.199   1.199   1.199   1.199   1.199   1.199   1.199   1.199   1.199   1.199   1.199   1.199   1.199   1.199   1.199   1.199   1.199   1.199
     0.00    1.199   1.199   1.199   1.199   1.199   1.199   1.199   1.199   1.199   1.199   1.199   1.199   1.199   1.199   1.199   1.199   1.199   1.199   1.199   1.199   1.199   1.199   1.199   1.199   1.199   1.199   1.199   1.199   1.199   1.199   1.199   1.199   1.199   1.199   1.199   1.199   1.199   1.199   1.199   1.199   1.199   1.199   1.199   1.199   1.199   1.199   1.199   1.199   1.199   1.199   1.199   1.199   1.199   1.199   1.199   1.199   1.199   1.199   1.199   1.199   1.199   1.199   1.199   1.199   1.199   1.199   1.199   1.199   1.199   1.199   1.199   1.199   1.199   1.199   1.199   1.199   1.199   1.199   1.199   1.199   1.199   1.199   1.199   1.199   1.199   1.199   1.199   1.199   1.199   1.199   1.199   1.199   1.199   1.199   1.199   1.199   1.199   1.199   1.199   1.199   1.199   1.199   1.199   1.199   1.199   1.199   1.199   1.199   1.199   1.199   1.199   1.199   1.199

   Height   Standard deviation at grid points for the w component:
   300.00    0.781   0.781   0.781   0.781   0.781   0.781   0.781   0.781   0.781   0.781   0.781   0.781   0.781   0.781   0.781   0.781   0.781   0.781   0.781   0.781   0.781   0.781   0.781   0.781   0.781   0.781   0.781   0.781   0.781   0.781   0.781   0.781   0.781   0.781   0.781   0.781   0.781   0.781   0.781   0.781   0.781   0.781   0.781   0.781   0.781   0.781   0.781   0.781   0.781   0.781   0.781   0.781   0.781   0.781   0.781   0.781   0.781   0.781   0.781   0.781   0.781   0.781   0.781   0.781   0.781   0.781   0.781   0.781   0.781   0.781   0.781   0.781   0.781   0.781   0.781   0.781   0.781   0.781   0.781   0.781   0.781   0.781   0.781   0.781   0.781   0.781   0.781   0.781   0.781   0.781   0.781   0.781   0.781   0.781   0.781   0.781   0.781   0.781   0.781   0.781   0.781   0.781   0.781   0.781   0.781   0.781   0.781   0.781   0.781   0.781   0.781   0.781   0.781
   289.66    0.781   0.781   0.781   0.781   0.781   0.781   0.781   0.781   0.781   0.781   0.781   0.781   0.781   0.781   0.781   0.781   0.781   0.781   0.781   0.781   0.781   0.781   0.781   0.781   0.781   0.781   0.781   0.781   0.781   0.781   0.781   0.781   0.781   0.781   0.781   0.781   0.781   0.781   0.781   0.781   0.781   0.781   0.781   0.781   0.781   0.781   0.781   0.781   0.781   0.781   0.781   0.781   0.781   0.781   0.781   0.781   0.781   0.781   0.781   0.781   0.781   0.781   0.781   0.781   0.781   0.781   0.781   0.781   0.781   0.781   0.781   0.781   0.781   0.781   0.781   0.781   0.781   0.781   0.781   0.781   0.781   0.781   0.781   0.781   0.781   0.781   0.781   0.781   0.781   0.781   0.781   0.781   0.781   0.781   0.781   0.781   0.781   0.781   0.781   0.781   0.781   0.781   0.781   0.781   0.781   0.781   0.781   0.781   0.781   0.781   0.781   0.781   0.781
   279.31    0.781   0.781   0.781   0.781   0.781   0.781   0.781   0.781   0.781   0.781   0.781   0.781   0.781   0.781   0.781   0.781   0.781   0.781   0.781   0.781   0.781   0.781   0.781   0.781   0.781   0.781   0.781   0.781   0.781   0.781   0.781   0.781   0.781   0.781   0.781   0.781   0.781   0.781   0.781   0.781   0.781   0.781   0.781   0.781   0.781   0.781   0.781   0.781   0.781   0.781   0.781   0.781   0.781   0.781   0.781   0.781   0.781   0.781   0.781   0.781   0.781   0.781   0.781   0.781   0.781   0.781   0.781   0.781   0.781   0.781   0.781   0.781   0.781   0.781   0.781   0.781   0.781   0.781   0.781   0.781   0.781   0.781   0.781   0.781   0.781   0.781   0.781   0.781   0.781   0.781   0.781   0.781   0.781   0.781   0.781   0.781   0.781   0.781   0.781   0.781   0.781   0.781   0.781   0.781   0.781   0.781   0.781   0.781   0.781   0.781   0.781   0.781   0.781
   268.97    0.781   0.781   0.781   0.781   0.781   0.781   0.781   0.781   0.781   0.781   0.781   0.781   0.781   0.781   0.781   0.781   0.781   0.781   0.781   0.781   0.781   0.781   0.781   0.781   0.781   0.781   0.781   0.781   0.781   0.781   0.781   0.781   0.781   0.781   0.781   0.781   0.781   0.781   0.781   0.781   0.781   0.781   0.781   0.781   0.781   0.781   0.781   0.781   0.781   0.781   0.781   0.781   0.781   0.781   0.781   0.781   0.781   0.781   0.781   0.781   0.781   0.781   0.781   0.781   0.781   0.781   0.781   0.781   0.781   0.781   0.781   0.781   0.781   0.781   0.781   0.781   0.781   0.781   0.781   0.781   0.781   0.781   0.781   0.781   0.781   0.781   0.781   0.781   0.781   0.781   0.781   0.781   0.781   0.781   0.781   0.781   0.781   0.781   0.781   0.781   0.781   0.781   0.781   0.781   0.781   0.781   0.781   0.781   0.781   0.781   0.781   0.781   0.781
   258.62    0.781   0.781   0.781   0.781   0.781   0.781   0.781   0.781   0.781   0.781   0.781   0.781   0.781   0.781   0.781   0.781   0.781   0.781   0.781   0.781   0.781   0.781   0.781   0.781   0.781   0.781   0.781   0.781   0.781   0.781   0.781   0.781   0.781   0.781   0.781   0.781   0.781   0.781   0.781   0.781   0.781   0.781   0.781   0.781   0.781   0.781   0.781   0.781   0.781   0.781   0.781   0.781   0.781   0.781   0.781   0.781   0.781   0.781   0.781   0.781   0.781   0.781   0.781   0.781   0.781   0.781   0.781   0.781   0.781   0.781   0.781   0.781   0.781   0.781   0.781   0.781   0.781   0.781   0.781   0.781   0.781   0.781   0.781   0.781   0.781   0.781   0.781   0.781   0.781   0.781   0.781   0.781   0.781   0.781   0.781   0.781   0.781   0.781   0.781   0.781   0.781   0.781   0.781   0.781   0.781   0.781   0.781   0.781   0.781   0.781   0.781   0.781   0.781
   248.28    0.781   0.781   0.781   0.781   0.781   0.781   0.781   0.781   0.781   0.781   0.781   0.781   0.781   0.781   0.781   0.781   0.781   0.781   0.781   0.781   0.781   0.781   0.781   0.781   0.781   0.781   0.781   0.781   0.781   0.781   0.781   0.781   0.781   0.781   0.781   0.781   0.781   0.781   0.781   0.781   0.781   0.781   0.781   0.781   0.781   0.781   0.781   0.781   0.781   0.781   0.781   0.781   0.781   0.781   0.781   0.781   0.781   0.781   0.781   0.781   0.781   0.781   0.781   0.781   0.781   0.781   0.781   0.781   0.781   0.781   0.781   0.781   0.781   0.781   0.781   0.781   0.781   0.781   0.781   0.781   0.781   0.781   0.781   0.781   0.781   0.781   0.781   0.781   0.781   0.781   0.781   0.781   0.781   0.781   0.781   0.781   0.781   0.781   0.781   0.781   0.781   0.781   0.781   0.781   0.781   0.781   0.781   0.781   0.781   0.781   0.781   0.781   0.781
   237.93    0.781   0.781   0.781   0.781   0.781   0.781   0.781   0.781   0.781   0.781   0.781   0.781   0.781   0.781   0.781   0.781   0.781   0.781   0.781   0.781   0.781   0.781   0.781   0.781   0.781   0.781   0.781   0.781   0.781   0.781   0.781   0.781   0.781   0.781   0.781   0.781   0.781   0.781   0.781   0.781   0.781   0.781   0.781   0.781   0.781   0.781   0.781   0.781   0.781   0.781   0.781   0.781   0.781   0.781   0.781   0.781   0.781   0.781   0.781   0.781   0.781   0.781   0.781   0.781   0.781   0.781   0.781   0.781   0.781   0.781   0.781   0.781   0.781   0.781   0.781   0.781   0.781   0.781   0.781   0.781   0.781   0.781   0.781   0.781   0.781   0.781   0.781   0.781   0.781   0.781   0.781   0.781   0.781   0.781   0.781   0.781   0.781   0.781   0.781   0.781   0.781   0.781   0.781   0.781   0.781   0.781   0.781   0.781   0.781   0.781   0.781   0.781   0.781
   227.59    0.781   0.781   0.781   0.781   0.781   0.781   0.781   0.781   0.781   0.781   0.781   0.781   0.781   0.781   0.781   0.781   0.781   0.781   0.781   0.781   0.781   0.781   0.781   0.781   0.781   0.781   0.781   0.781   0.781   0.781   0.781   0.781   0.781   0.781   0.781   0.781   0.781   0.781   0.781   0.781   0.781   0.781   0.781   0.781   0.781   0.781   0.781   0.781   0.781   0.781   0.781   0.781   0.781   0.781   0.781   0.781   0.781   0.781   0.781   0.781   0.781   0.781   0.781   0.781   0.781   0.781   0.781   0.781   0.781   0.781   0.781   0.781   0.781   0.781   0.781   0.781   0.781   0.781   0.781   0.781   0.781   0.781   0.781   0.781   0.781   0.781   0.781   0.781   0.781   0.781   0.781   0.781   0.781   0.781   0.781   0.781   0.781   0.781   0.781   0.781   0.781   0.781   0.781   0.781   0.781   0.781   0.781   0.781   0.781   0.781   0.781   0.781   0.781
   217.24    0.781   0.781   0.781   0.781   0.781   0.781   0.781   0.781   0.781   0.781   0.781   0.781   0.781   0.781   0.781   0.781   0.781   0.781   0.781   0.781   0.781   0.781   0.781   0.781   0.781   0.781   0.781   0.781   0.781   0.781   0.781   0.781   0.781   0.781   0.781   0.781   0.781   0.781   0.781   0.781   0.781   0.781   0.781   0.781   0.781   0.781   0.781   0.781   0.781   0.781   0.781   0.781   0.781   0.781   0.781   0.781   0.781   0.781   0.781   0.781   0.781   0.781   0.781   0.781   0.781   0.781   0.781   0.781   0.781   0.781   0.781   0.781   0.781   0.781   0.781   0.781   0.781   0.781   0.781   0.781   0.781   0.781   0.781   0.781   0.781   0.781   0.781   0.781   0.781   0.781   0.781   0.781   0.781   0.781   0.781   0.781   0.781   0.781   0.781   0.781   0.781   0.781   0.781   0.781   0.781   0.781   0.781   0.781   0.781   0.781   0.781   0.781   0.781
   206.90    0.781   0.781   0.781   0.781   0.781   0.781   0.781   0.781   0.781   0.781   0.781   0.781   0.781   0.781   0.781   0.781   0.781   0.781   0.781   0.781   0.781   0.781   0.781   0.781   0.781   0.781   0.781   0.781   0.781   0.781   0.781   0.781   0.781   0.781   0.781   0.781   0.781   0.781   0.781   0.781   0.781   0.781   0.781   0.781   0.781   0.781   0.781   0.781   0.781   0.781   0.781   0.781   0.781   0.781   0.781   0.781   0.781   0.781   0.781   0.781   0.781   0.781   0.781   0.781   0.781   0.781   0.781   0.781   0.781   0.781   0.781   0.781   0.781   0.781   0.781   0.781   0.781   0.781   0.781   0.781   0.781   0.781   0.781   0.781   0.781   0.781   0.781   0.781   0.781   0.781   0.781   0.781   0.781   0.781   0.781   0.781   0.781   0.781   0.781   0.781   0.781   0.781   0.781   0.781   0.781   0.781   0.781   0.781   0.781   0.781   0.781   0.781   0.781
   196.55    0.781   0.781   0.781   0.781   0.781   0.781   0.781   0.781   0.781   0.781   0.781   0.781   0.781   0.781   0.781   0.781   0.781   0.781   0.781   0.781   0.781   0.781   0.781   0.781   0.781   0.781   0.781   0.781   0.781   0.781   0.781   0.781   0.781   0.781   0.781   0.781   0.781   0.781   0.781   0.781   0.781   0.781   0.781   0.781   0.781   0.781   0.781   0.781   0.781   0.781   0.781   0.781   0.781   0.781   0.781   0.781   0.781   0.781   0.781   0.781   0.781   0.781   0.781   0.781   0.781   0.781   0.781   0.781   0.781   0.781   0.781   0.781   0.781   0.781   0.781   0.781   0.781   0.781   0.781   0.781   0.781   0.781   0.781   0.781   0.781   0.781   0.781   0.781   0.781   0.781   0.781   0.781   0.781   0.781   0.781   0.781   0.781   0.781   0.781   0.781   0.781   0.781   0.781   0.781   0.781   0.781   0.781   0.781   0.781   0.781   0.781   0.781   0.781
   186.21    0.781   0.781   0.781   0.781   0.781   0.781   0.781   0.781   0.781   0.781   0.781   0.781   0.781   0.781   0.781   0.781   0.781   0.781   0.781   0.781   0.781   0.781   0.781   0.781   0.781   0.781   0.781   0.781   0.781   0.781   0.781   0.781   0.781   0.781   0.781   0.781   0.781   0.781   0.781   0.781   0.781   0.781   0.781   0.781   0.781   0.781   0.781   0.781   0.781   0.781   0.781   0.781   0.781   0.781   0.781   0.781   0.781   0.781   0.781   0.781   0.781   0.781   0.781   0.781   0.781   0.781   0.781   0.781   0.781   0.781   0.781   0.781   0.781   0.781   0.781   0.781   0.781   0.781   0.781   0.781   0.781   0.781   0.781   0.781   0.781   0.781   0.781   0.781   0.781   0.781   0.781   0.781   0.781   0.781   0.781   0.781   0.781   0.781   0.781   0.781   0.781   0.781   0.781   0.781   0.781   0.781   0.781   0.781   0.781   0.781   0.781   0.781   0.781
   175.86    0.781   0.781   0.781   0.781   0.781   0.781   0.781   0.781   0.781   0.781   0.781   0.781   0.781   0.781   0.781   0.781   0.781   0.781   0.781   0.781   0.781   0.781   0.781   0.781   0.781   0.781   0.781   0.781   0.781   0.781   0.781   0.781   0.781   0.781   0.781   0.781   0.781   0.781   0.781   0.781   0.781   0.781   0.781   0.781   0.781   0.781   0.781   0.781   0.781   0.781   0.781   0.781   0.781   0.781   0.781   0.781   0.781   0.781   0.781   0.781   0.781   0.781   0.781   0.781   0.781   0.781   0.781   0.781   0.781   0.781   0.781   0.781   0.781   0.781   0.781   0.781   0.781   0.781   0.781   0.781   0.781   0.781   0.781   0.781   0.781   0.781   0.781   0.781   0.781   0.781   0.781   0.781   0.781   0.781   0.781   0.781   0.781   0.781   0.781   0.781   0.781   0.781   0.781   0.781   0.781   0.781   0.781   0.781   0.781   0.781   0.781   0.781   0.781
   165.52    0.781   0.781   0.781   0.781   0.781   0.781   0.781   0.781   0.781   0.781   0.781   0.781   0.781   0.781   0.781   0.781   0.781   0.781   0.781   0.781   0.781   0.781   0.781   0.781   0.781   0.781   0.781   0.781   0.781   0.781   0.781   0.781   0.781   0.781   0.781   0.781   0.781   0.781   0.781   0.781   0.781   0.781   0.781   0.781   0.781   0.781   0.781   0.781   0.781   0.781   0.781   0.781   0.781   0.781   0.781   0.781   0.781   0.781   0.781   0.781   0.781   0.781   0.781   0.781   0.781   0.781   0.781   0.781   0.781   0.781   0.781   0.781   0.781   0.781   0.781   0.781   0.781   0.781   0.781   0.781   0.781   0.781   0.781   0.781   0.781   0.781   0.781   0.781   0.781   0.781   0.781   0.781   0.781   0.781   0.781   0.781   0.781   0.781   0.781   0.781   0.781   0.781   0.781   0.781   0.781   0.781   0.781   0.781   0.781   0.781   0.781   0.781   0.781
   155.17    0.781   0.781   0.781   0.781   0.781   0.781   0.781   0.781   0.781   0.781   0.781   0.781   0.781   0.781   0.781   0.781   0.781   0.781   0.781   0.781   0.781   0.781   0.781   0.781   0.781   0.781   0.781   0.781   0.781   0.781   0.781   0.781   0.781   0.781   0.781   0.781   0.781   0.781   0.781   0.781   0.781   0.781   0.781   0.781   0.781   0.781   0.781   0.781   0.781   0.781   0.781   0.781   0.781   0.781   0.781   0.781   0.781   0.781   0.781   0.781   0.781   0.781   0.781   0.781   0.781   0.781   0.781   0.781   0.781   0.781   0.781   0.781   0.781   0.781   0.781   0.781   0.781   0.781   0.781   0.781   0.781   0.781   0.781   0.781   0.781   0.781   0.781   0.781   0.781   0.781   0.781   0.781   0.781   0.781   0.781   0.781   0.781   0.781   0.781   0.781   0.781   0.781   0.781   0.781   0.781   0.781   0.781   0.781   0.781   0.781   0.781   0.781   0.781
   144.83    0.781   0.781   0.781   0.781   0.781   0.781   0.781   0.781   0.781   0.781   0.781   0.781   0.781   0.781   0.781   0.781   0.781   0.781   0.781   0.781   0.781   0.781   0.781   0.781   0.781   0.781   0.781   0.781   0.781   0.781   0.781   0.781   0.781   0.781   0.781   0.781   0.781   0.781   0.781   0.781   0.781   0.781   0.781   0.781   0.781   0.781   0.781   0.781   0.781   0.781   0.781   0.781   0.781   0.781   0.781   0.781   0.781   0.781   0.781   0.781   0.781   0.781   0.781   0.781   0.781   0.781   0.781   0.781   0.781   0.781   0.781   0.781   0.781   0.781   0.781   0.781   0.781   0.781   0.781   0.781   0.781   0.781   0.781   0.781   0.781   0.781   0.781   0.781   0.781   0.781   0.781   0.781   0.781   0.781   0.781   0.781   0.781   0.781   0.781   0.781   0.781   0.781   0.781   0.781   0.781   0.781   0.781   0.781   0.781   0.781   0.781   0.781   0.781
   134.48    0.781   0.781   0.781   0.781   0.781   0.781   0.781   0.781   0.781   0.781   0.781   0.781   0.781   0.781   0.781   0.781   0.781   0.781   0.781   0.781   0.781   0.781   0.781   0.781   0.781   0.781   0.781   0.781   0.781   0.781   0.781   0.781   0.781   0.781   0.781   0.781   0.781   0.781   0.781   0.781   0.781   0.781   0.781   0.781   0.781   0.781   0.781   0.781   0.781   0.781   0.781   0.781   0.781   0.781   0.781   0.781   0.781   0.781   0.781   0.781   0.781   0.781   0.781   0.781   0.781   0.781   0.781   0.781   0.781   0.781   0.781   0.781   0.781   0.781   0.781   0.781   0.781   0.781   0.781   0.781   0.781   0.781   0.781   0.781   0.781   0.781   0.781   0.781   0.781   0.781   0.781   0.781   0.781   0.781   0.781   0.781   0.781   0.781   0.781   0.781   0.781   0.781   0.781   0.781   0.781   0.781   0.781   0.781   0.781   0.781   0.781   0.781   0.781
   124.14    0.781   0.781   0.781   0.781   0.781   0.781   0.781   0.781   0.781   0.781   0.781   0.781   0.781   0.781   0.781   0.781   0.781   0.781   0.781   0.781   0.781   0.781   0.781   0.781   0.781   0.781   0.781   0.781   0.781   0.781   0.781   0.781   0.781   0.781   0.781   0.781   0.781   0.781   0.781   0.781   0.781   0.781   0.781   0.781   0.781   0.781   0.781   0.781   0.781   0.781   0.781   0.781   0.781   0.781   0.781   0.781   0.781   0.781   0.781   0.781   0.781   0.781   0.781   0.781   0.781   0.781   0.781   0.781   0.781   0.781   0.781   0.781   0.781   0.781   0.781   0.781   0.781   0.781   0.781   0.781   0.781   0.781   0.781   0.781   0.781   0.781   0.781   0.781   0.781   0.781   0.781   0.781   0.781   0.781   0.781   0.781   0.781   0.781   0.781   0.781   0.781   0.781   0.781   0.781   0.781   0.781   0.781   0.781   0.781   0.781   0.781   0.781   0.781
   113.79    0.781   0.781   0.781   0.781   0.781   0.781   0.781   0.781   0.781   0.781   0.781   0.781   0.781   0.781   0.781   0.781   0.781   0.781   0.781   0.781   0.781   0.781   0.781   0.781   0.781   0.781   0.781   0.781   0.781   0.781   0.781   0.781   0.781   0.781   0.781   0.781   0.781   0.781   0.781   0.781   0.781   0.781   0.781   0.781   0.781   0.781   0.781   0.781   0.781   0.781   0.781   0.781   0.781   0.781   0.781   0.781   0.781   0.781   0.781   0.781   0.781   0.781   0.781   0.781   0.781   0.781   0.781   0.781   0.781   0.781   0.781   0.781   0.781   0.781   0.781   0.781   0.781   0.781   0.781   0.781   0.781   0.781   0.781   0.781   0.781   0.781   0.781   0.781   0.781   0.781   0.781   0.781   0.781   0.781   0.781   0.781   0.781   0.781   0.781   0.781   0.781   0.781   0.781   0.781   0.781   0.781   0.781   0.781   0.781   0.781   0.781   0.781   0.781
   103.45    0.781   0.781   0.781   0.781   0.781   0.781   0.781   0.781   0.781   0.781   0.781   0.781   0.781   0.781   0.781   0.781   0.781   0.781   0.781   0.781   0.781   0.781   0.781   0.781   0.781   0.781   0.781   0.781   0.781   0.781   0.781   0.781   0.781   0.781   0.781   0.781   0.781   0.781   0.781   0.781   0.781   0.781   0.781   0.781   0.781   0.781   0.781   0.781   0.781   0.781   0.781   0.781   0.781   0.781   0.781   0.781   0.781   0.781   0.781   0.781   0.781   0.781   0.781   0.781   0.781   0.781   0.781   0.781   0.781   0.781   0.781   0.781   0.781   0.781   0.781   0.781   0.781   0.781   0.781   0.781   0.781   0.781   0.781   0.781   0.781   0.781   0.781   0.781   0.781   0.781   0.781   0.781   0.781   0.781   0.781   0.781   0.781   0.781   0.781   0.781   0.781   0.781   0.781   0.781   0.781   0.781   0.781   0.781   0.781   0.781   0.781   0.781   0.781
    93.10    0.781   0.781   0.781   0.781   0.781   0.781   0.781   0.781   0.781   0.781   0.781   0.781   0.781   0.781   0.781   0.781   0.781   0.781   0.781   0.781   0.781   0.781   0.781   0.781   0.781   0.781   0.781   0.781   0.781   0.781   0.781   0.781   0.781   0.781   0.781   0.781   0.781   0.781   0.781   0.781   0.781   0.781   0.781   0.781   0.781   0.781   0.781   0.781   0.781   0.781   0.781   0.781   0.781   0.781   0.781   0.781   0.781   0.781   0.781   0.781   0.781   0.781   0.781   0.781   0.781   0.781   0.781   0.781   0.781   0.781   0.781   0.781   0.781   0.781   0.781   0.781   0.781   0.781   0.781   0.781   0.781   0.781   0.781   0.781   0.781   0.781   0.781   0.781   0.781   0.781   0.781   0.781   0.781   0.781   0.781   0.781   0.781   0.781   0.781   0.781   0.781   0.781   0.781   0.781   0.781   0.781   0.781   0.781   0.781   0.781   0.781   0.781   0.781
    82.76    0.781   0.781   0.781   0.781   0.781   0.781   0.781   0.781   0.781   0.781   0.781   0.781   0.781   0.781   0.781   0.781   0.781   0.781   0.781   0.781   0.781   0.781   0.781   0.781   0.781   0.781   0.781   0.781   0.781   0.781   0.781   0.781   0.781   0.781   0.781   0.781   0.781   0.781   0.781   0.781   0.781   0.781   0.781   0.781   0.781   0.781   0.781   0.781   0.781   0.781   0.781   0.781   0.781   0.781   0.781   0.781   0.781   0.781   0.781   0.781   0.781   0.781   0.781   0.781   0.781   0.781   0.781   0.781   0.781   0.781   0.781   0.781   0.781   0.781   0.781   0.781   0.781   0.781   0.781   0.781   0.781   0.781   0.781   0.781   0.781   0.781   0.781   0.781   0.781   0.781   0.781   0.781   0.781   0.781   0.781   0.781   0.781   0.781   0.781   0.781   0.781   0.781   0.781   0.781   0.781   0.781   0.781   0.781   0.781   0.781   0.781   0.781   0.781
    72.41    0.781   0.781   0.781   0.781   0.781   0.781   0.781   0.781   0.781   0.781   0.781   0.781   0.781   0.781   0.781   0.781   0.781   0.781   0.781   0.781   0.781   0.781   0.781   0.781   0.781   0.781   0.781   0.781   0.781   0.781   0.781   0.781   0.781   0.781   0.781   0.781   0.781   0.781   0.781   0.781   0.781   0.781   0.781   0.781   0.781   0.781   0.781   0.781   0.781   0.781   0.781   0.781   0.781   0.781   0.781   0.781   0.781   0.781   0.781   0.781   0.781   0.781   0.781   0.781   0.781   0.781   0.781   0.781   0.781   0.781   0.781   0.781   0.781   0.781   0.781   0.781   0.781   0.781   0.781   0.781   0.781   0.781   0.781   0.781   0.781   0.781   0.781   0.781   0.781   0.781   0.781   0.781   0.781   0.781   0.781   0.781   0.781   0.781   0.781   0.781   0.781   0.781   0.781   0.781   0.781   0.781   0.781   0.781   0.781   0.781   0.781   0.781   0.781
    62.07    0.781   0.781   0.781   0.781   0.781   0.781   0.781   0.781   0.781   0.781   0.781   0.781   0.781   0.781   0.781   0.781   0.781   0.781   0.781   0.781   0.781   0.781   0.781   0.781   0.781   0.781   0.781   0.781   0.781   0.781   0.781   0.781   0.781   0.781   0.781   0.781   0.781   0.781   0.781   0.781   0.781   0.781   0.781   0.781   0.781   0.781   0.781   0.781   0.781   0.781   0.781   0.781   0.781   0.781   0.781   0.781   0.781   0.781   0.781   0.781   0.781   0.781   0.781   0.781   0.781   0.781   0.781   0.781   0.781   0.781   0.781   0.781   0.781   0.781   0.781   0.781   0.781   0.781   0.781   0.781   0.781   0.781   0.781   0.781   0.781   0.781   0.781   0.781   0.781   0.781   0.781   0.781   0.781   0.781   0.781   0.781   0.781   0.781   0.781   0.781   0.781   0.781   0.781   0.781   0.781   0.781   0.781   0.781   0.781   0.781   0.781   0.781   0.781
    51.72    0.781   0.781   0.781   0.781   0.781   0.781   0.781   0.781   0.781   0.781   0.781   0.781   0.781   0.781   0.781   0.781   0.781   0.781   0.781   0.781   0.781   0.781   0.781   0.781   0.781   0.781   0.781   0.781   0.781   0.781   0.781   0.781   0.781   0.781   0.781   0.781   0.781   0.781   0.781   0.781   0.781   0.781   0.781   0.781   0.781   0.781   0.781   0.781   0.781   0.781   0.781   0.781   0.781   0.781   0.781   0.781   0.781   0.781   0.781   0.781   0.781   0.781   0.781   0.781   0.781   0.781   0.781   0.781   0.781   0.781   0.781   0.781   0.781   0.781   0.781   0.781   0.781   0.781   0.781   0.781   0.781   0.781   0.781   0.781   0.781   0.781   0.781   0.781   0.781   0.781   0.781   0.781   0.781   0.781   0.781   0.781   0.781   0.781   0.781   0.781   0.781   0.781   0.781   0.781   0.781   0.781   0.781   0.781   0.781   0.781   0.781   0.781   0.781
    41.38    0.781   0.781   0.781   0.781   0.781   0.781   0.781   0.781   0.781   0.781   0.781   0.781   0.781   0.781   0.781   0.781   0.781   0.781   0.781   0.781   0.781   0.781   0.781   0.781   0.781   0.781   0.781   0.781   0.781   0.781   0.781   0.781   0.781   0.781   0.781   0.781   0.781   0.781   0.781   0.781   0.781   0.781   0.781   0.781   0.781   0.781   0.781   0.781   0.781   0.781   0.781   0.781   0.781   0.781   0.781   0.781   0.781   0.781   0.781   0.781   0.781   0.781   0.781   0.781   0.781   0.781   0.781   0.781   0.781   0.781   0.781   0.781   0.781   0.781   0.781   0.781   0.781   0.781   0.781   0.781   0.781   0.781   0.781   0.781   0.781   0.781   0.781   0.781   0.781   0.781   0.781   0.781   0.781   0.781   0.781   0.781   0.781   0.781   0.781   0.781   0.781   0.781   0.781   0.781   0.781   0.781   0.781   0.781   0.781   0.781   0.781   0.781   0.781
    31.03    0.781   0.781   0.781   0.781   0.781   0.781   0.781   0.781   0.781   0.781   0.781   0.781   0.781   0.781   0.781   0.781   0.781   0.781   0.781   0.781   0.781   0.781   0.781   0.781   0.781   0.781   0.781   0.781   0.781   0.781   0.781   0.781   0.781   0.781   0.781   0.781   0.781   0.781   0.781   0.781   0.781   0.781   0.781   0.781   0.781   0.781   0.781   0.781   0.781   0.781   0.781   0.781   0.781   0.781   0.781   0.781   0.781   0.781   0.781   0.781   0.781   0.781   0.781   0.781   0.781   0.781   0.781   0.781   0.781   0.781   0.781   0.781   0.781   0.781   0.781   0.781   0.781   0.781   0.781   0.781   0.781   0.781   0.781   0.781   0.781   0.781   0.781   0.781   0.781   0.781   0.781   0.781   0.781   0.781   0.781   0.781   0.781   0.781   0.781   0.781   0.781   0.781   0.781   0.781   0.781   0.781   0.781   0.781   0.781   0.781   0.781   0.781   0.781
    20.69    0.781   0.781   0.781   0.781   0.781   0.781   0.781   0.781   0.781   0.781   0.781   0.781   0.781   0.781   0.781   0.781   0.781   0.781   0.781   0.781   0.781   0.781   0.781   0.781   0.781   0.781   0.781   0.781   0.781   0.781   0.781   0.781   0.781   0.781   0.781   0.781   0.781   0.781   0.781   0.781   0.781   0.781   0.781   0.781   0.781   0.781   0.781   0.781   0.781   0.781   0.781   0.781   0.781   0.781   0.781   0.781   0.781   0.781   0.781   0.781   0.781   0.781   0.781   0.781   0.781   0.781   0.781   0.781   0.781   0.781   0.781   0.781   0.781   0.781   0.781   0.781   0.781   0.781   0.781   0.781   0.781   0.781   0.781   0.781   0.781   0.781   0.781   0.781   0.781   0.781   0.781   0.781   0.781   0.781   0.781   0.781   0.781   0.781   0.781   0.781   0.781   0.781   0.781   0.781   0.781   0.781   0.781   0.781   0.781   0.781   0.781   0.781   0.781
    10.34    0.781   0.781   0.781   0.781   0.781   0.781   0.781   0.781   0.781   0.781   0.781   0.781   0.781   0.781   0.781   0.781   0.781   0.781   0.781   0.781   0.781   0.781   0.781   0.781   0.781   0.781   0.781   0.781   0.781   0.781   0.781   0.781   0.781   0.781   0.781   0.781   0.781   0.781   0.781   0.781   0.781   0.781   0.781   0.781   0.781   0.781   0.781   0.781   0.781   0.781   0.781   0.781   0.781   0.781   0.781   0.781   0.781   0.781   0.781   0.781   0.781   0.781   0.781   0.781   0.781   0.781   0.781   0.781   0.781   0.781   0.781   0.781   0.781   0.781   0.781   0.781   0.781   0.781   0.781   0.781   0.781   0.781   0.781   0.781   0.781   0.781   0.781   0.781   0.781   0.781   0.781   0.781   0.781   0.781   0.781   0.781   0.781   0.781   0.781   0.781   0.781   0.781   0.781   0.781   0.781   0.781   0.781   0.781   0.781   0.781   0.781   0.781   0.781
     0.00    0.781   0.781   0.781   0.781   0.781   0.781   0.781   0.781   0.781   0.781   0.781   0.781   0.781   0.781   0.781   0.781   0.781   0.781   0.781   0.781   0.781   0.781   0.781   0.781   0.781   0.781   0.781   0.781   0.781   0.781   0.781   0.781   0.781   0.781   0.781   0.781   0.781   0.781   0.781   0.781   0.781   0.781   0.781   0.781   0.781   0.781   0.781   0.781   0.781   0.781   0.781   0.781   0.781   0.781   0.781   0.781   0.781   0.781   0.781   0.781   0.781   0.781   0.781   0.781   0.781   0.781   0.781   0.781   0.781   0.781   0.781   0.781   0.781   0.781   0.781   0.781   0.781   0.781   0.781   0.781   0.781   0.781   0.781   0.781   0.781   0.781   0.781   0.781   0.781   0.781   0.781   0.781   0.781   0.781   0.781   0.781   0.781   0.781   0.781   0.781   0.781   0.781   0.781   0.781   0.781   0.781   0.781   0.781   0.781   0.781   0.781   0.781   0.781

   Mean standard deviation across all grid points:
      u component:    1.262 m/s
      v component:    1.199 m/s
      w component:    0.781 m/s


U-component (X) statistics from the interpolated hub point:

   Mean =   7.6768 m/s
   TI   =  19.4808 %


Processing complete.  6.3906 CPU seconds used.
