
This summary file was generated by TurbSim (from OpenFAST-v4.1.2) on 23-Feb-2026 at 17:04:40.


Runtime Options:

1164818714  Random seed #1
    RANLUX  Type of random number generator
         F  Output binary HH turbulence parameters?
         F  Output formatted turbulence parameters?
         F  Output AeroDyn HH files?
         T  Output AeroDyn FF files?
         F  Output BLADED FF files?
         F  Output tower data?
         F  Output HAWC FF files?
         T  Output formatted FF files?
         F  Output coherent turbulence time step file?
 0 -  NONE  IEC turbulence models scaled to exact specified standard deviation


Turbine/Model Specifications:

        30  Vertical grid-point matrix dimension
       113  Horizontal grid-point matrix dimension
     1.000  Time step [seconds]
    90.000  Analysis time [seconds]
    90.000  Usable output time [seconds]
   150.000  Hub height [m]
   300.000  Grid height [m]
  1134.000  Grid width [m]
     0.000  Vertical flow angle [degrees]
     8.000  Horizontal flow angle [degrees]


Meteorological Boundary Conditions:

    IECKAI  IEC Kaimal spectral model
         1  IEC standard: IEC 61400-1 Ed. 3: 2005
         A  IEC turbulence characteristic
       NTM  IEC Normal Turbulence Model
       N/A  IEC Extreme Turbulence Model (ETM) "c" parameter [m/s]
       PL   Wind profile type
    90.000  Reference height [m]
     7.000  Reference wind speed [m/s]
       N/A  Jet height [m]
     0.200  Power law exponent
     0.030  Surface roughness length [m]


Non-IEC Meteorological Boundary Conditions:

       N/A  Site latitude [degrees]
       N/A  Gradient Richardson number
       N/A  Friction or shear velocity [m/s]
       N/A  Mixing layer depth [m]
       N/A  Mean hub u'w' Reynolds stress
       N/A  Mean hub u'v' Reynolds stress
       N/A  Mean hub v'w' Reynolds stress


Spatial Coherence Models:

       IEC  u-component coherence model
      NONE  v-component coherence model
      NONE  w-component coherence model
(   12.000, 0.353E-03)  u-component coherence parameters
                   N/A  v-component coherence parameters
                   N/A  w-component coherence parameters
       N/A  Coherence exponent


You have requested that the following file(s) be generated:

   Generator_Ambient/TurbSim1.bts (AeroDyn/TurbSim full-field wind file)
   Generator_Ambient/TurbSim1.u (formatted full-field U-component file)
   Generator_Ambient/TurbSim1.v (formatted full-field V-component file)
   Generator_Ambient/TurbSim1.w (formatted full-field W-component file)


Turbulence Simulation Scaling Parameter Summary:

   Turbulence model used                            =  IEC Kaimal
   Turbulence characteristic                        =  A
   IEC turbulence type                              =  Normal Turbulence Model
   IEC standard                                     =  IEC 61400-1 Ed. 3: 2005
   Mean wind speed at hub height                    =    7.753 m/s
   Expected value of turbulence intensity at 15 m/s =   16.000%
   Characteristic value of standard deviation       =    1.826 m/s
   Turbulence scale                                 =   42.000 m
   u-component integral scale                       =  340.200 m
   Coherency scale                                  =  340.200 m
   Characteristic value of hub turbulence intensity =   23.557%
   Gradient Richardson number                       =    0.000

   Wind profile type                                =  Power law
   Power law exponent                               =    0.200
   Mean shear across rotor disk                     =    0.030 (m/s)/m
   Assumed rotor diameter                           =  300.000 m
   Surface roughness length                         =    0.030 m

   Nyquist frequency of turbulent wind field        =    0.500 Hz

   Number of time steps in the FFT                  =       90
   Number of time steps output                      =       90
   Number of points simulated                       =     3391


Mean Flow Angles:

   Vertical   =   0.0 degrees
   Horizontal =   8.0 degrees

Mean Wind Speed Profile:

   Height    Wind Speed   Horizontal Angle  Vertical Angle  U-comp (X)   V-comp (Y)   W-comp (Z)
     (m)        (m/s)         (degrees)       (degrees)       (m/s)        (m/s)        (m/s)   
   ------    ----------   ----------------  --------------  ----------   ----------   ----------
    300.0        8.91            8.00            0.00          8.82         1.24         0.00
    289.7        8.84            8.00            0.00          8.76         1.23         0.00
    279.3        8.78            8.00            0.00          8.69         1.22         0.00
    269.0        8.71            8.00            0.00          8.63         1.21         0.00
    258.6        8.65            8.00            0.00          8.56         1.20         0.00
    248.3        8.58            8.00            0.00          8.49         1.19         0.00
    237.9        8.50            8.00            0.00          8.42         1.18         0.00
    227.6        8.43            8.00            0.00          8.35         1.17         0.00
    217.2        8.35            8.00            0.00          8.27         1.16         0.00
    206.9        8.27            8.00            0.00          8.19         1.15         0.00
    196.6        8.18            8.00            0.00          8.10         1.14         0.00
    186.2        8.10            8.00            0.00          8.02         1.13         0.00
    175.9        8.00            8.00            0.00          7.93         1.11         0.00
    165.5        7.91            8.00            0.00          7.83         1.10         0.00
    155.2        7.81            8.00            0.00          7.73         1.09         0.00
    150.0        7.75            8.00            0.00          7.68         1.08         0.00
    144.8        7.70            8.00            0.00          7.62         1.07         0.00
    134.5        7.59            8.00            0.00          7.51         1.06         0.00
    124.1        7.47            8.00            0.00          7.39         1.04         0.00
    113.8        7.34            8.00            0.00          7.26         1.02         0.00
    103.4        7.20            8.00            0.00          7.13         1.00         0.00
     93.1        7.05            8.00            0.00          6.98         0.98         0.00
     82.8        6.88            8.00            0.00          6.82         0.96         0.00
     72.4        6.70            8.00            0.00          6.64         0.93         0.00
     62.1        6.50            8.00            0.00          6.44         0.90         0.00
     51.7        6.27            8.00            0.00          6.20         0.87         0.00
     41.4        5.99            8.00            0.00          5.93         0.83         0.00
     31.0        5.66            8.00            0.00          5.60         0.79         0.00
     20.7        5.22            8.00            0.00          5.17         0.73         0.00
     10.3        4.54            8.00            0.00          4.50         0.63         0.00
      0.0        0.45            8.00            0.00          0.45         0.06         0.00


Harvested Random Seeds after Generation of the Random Numbers:

      4253511 K 1
            0 K 2


Hub-Height Simulated Turbulence Statistical Summary:

   Type of Wind        Min (m/s)   Mean (m/s)    Max (m/s)  Sigma (m/s)       TI (%)
   ----------------    ---------   ----------    ---------  -----------       ------
   Longitudinal (u)         4.74         7.75        10.30        1.145       14.771
   Lateral (v)             -3.23         0.00         2.84        1.199       15.470
   Vertical (w)            -2.63        -0.00         1.42        0.781       10.068
   U component              5.00         7.68        10.26        1.074       13.988
   V component             -2.21         1.08         3.96        1.264       16.459
   W component             -2.63        -0.00         1.42        0.781       10.167
   Horizontal (U&V)         5.00         7.85        10.31        1.113       14.183
   Total                    5.02         7.89        10.32        1.128       14.309

                       Min Reynolds     Mean Reynolds    Max Reynolds    Correlation
   Product             Stress (m/s)^2   Stress (m/s)^2   Stress (m/s)^2  Coefficient
   ----------------    --------------   --------------   --------------  -----------
   u'w'                     -4.578            -0.189             2.158        -0.211
   u'v'                     -1.485             0.583             8.200         0.424
   v'w'                     -7.014            -0.234             3.598        -0.250


   Friction Velocity (Ustar)  =      0.434 m/s
   Maximum Instantaneous TKE  =      9.120 (m/s)^2
   Maximum Instantaneous CTKE =      4.903 (m/s)^2


Grid Point Variance Summary:

   Y-coord -567.00 -556.88 -546.75 -536.62 -526.50 -516.38 -506.25 -496.12 -486.00 -475.88 -465.75 -455.62 -445.50 -435.38 -425.25 -415.12 -405.00 -394.88 -384.75 -374.62 -364.50 -354.38 -344.25 -334.12 -324.00 -313.88 -303.75 -293.62 -283.50 -273.38 -263.25 -253.12 -243.00 -232.88 -222.75 -212.62 -202.50 -192.38 -182.25 -172.12 -162.00 -151.88 -141.75 -131.62 -121.50 -111.38 -101.25  -91.12  -81.00  -70.88  -60.75  -50.62  -40.50  -30.38  -20.25  -10.12    0.00   10.12   20.25   30.38   40.50   50.62   60.75   70.88   81.00   91.12  101.25  111.38  121.50  131.62  141.75  151.88  162.00  172.12  182.25  192.38  202.50  212.62  222.75  232.88  243.00  253.12  263.25  273.38  283.50  293.62  303.75  313.88  324.00  334.12  344.25  354.38  364.50  374.62  384.75  394.88  405.00  415.12  425.25  435.38  445.50  455.62  465.75  475.88  486.00  496.12  506.25  516.38  526.50  536.62  546.75  556.88  567.00

   Height   Standard deviation at grid points for the u component:
   300.00    1.601   1.071   1.057   0.985   0.919   1.039   1.179   1.167   1.121   1.090   1.086   0.844   1.092   1.421   1.468   1.201   1.342   1.161   1.527   1.698   1.769   1.718   2.000   1.911   1.766   2.112   2.077   1.881   1.627   1.724   1.329   1.138   1.168   1.095   1.218   1.229   1.522   1.371   1.288   1.021   1.259   1.465   1.084   1.517   1.503   1.405   1.089   1.317   1.157   1.251   1.390   1.428   1.564   1.261   1.398   1.469   1.103   1.141   0.993   1.215   1.107   1.153   0.813   0.989   1.004   0.925   0.992   1.038   1.160   1.459   1.316   1.106   1.230   0.770   1.131   0.988   1.256   1.072   1.442   1.654   1.132   1.107   0.961   1.169   1.078   1.120   1.109   1.243   1.377   1.234   1.022   1.176   0.920   1.208   1.283   1.018   1.077   1.309   1.606   1.538   1.695   1.635   1.516   1.374   1.649   1.362   1.320   1.739   1.422   1.230   1.239   1.242   1.265
   289.66    1.510   0.987   0.905   0.913   1.044   1.302   1.446   0.931   1.032   1.104   1.206   0.954   1.177   1.368   1.202   1.212   1.475   1.850   1.453   1.822   1.929   1.877   1.726   1.710   1.910   1.928   1.658   1.432   1.467   1.348   1.196   0.808   1.062   1.162   0.977   1.427   1.424   1.673   1.943   1.772   1.515   1.336   1.443   1.581   1.377   1.438   1.284   1.037   1.309   1.149   1.081   1.314   1.280   1.286   1.476   1.358   1.235   1.110   0.902   0.860   0.828   0.907   0.992   1.022   0.992   1.106   1.381   1.654   1.275   1.628   1.853   1.604   1.143   1.178   0.971   1.063   0.893   1.290   1.451   1.293   1.269   0.968   0.778   0.871   0.832   1.004   1.087   1.129   1.187   1.220   0.996   1.010   1.206   0.988   1.056   1.091   1.201   1.227   1.427   1.457   1.661   1.482   1.251   1.197   1.333   1.684   1.754   1.675   1.673   1.363   1.645   0.990   1.101
   279.31    1.568   1.043   0.886   0.975   1.251   1.465   1.400   1.273   1.145   0.895   1.077   1.111   1.183   1.276   1.381   1.115   1.322   1.401   1.419   1.664   1.768   1.507   1.550   1.674   1.807   1.492   1.274   0.992   1.139   1.381   0.965   0.911   0.967   0.710   0.957   1.324   1.175   1.418   1.454   1.750   1.508   1.569   1.185   1.029   1.413   1.498   1.434   1.105   1.103   1.386   1.498   1.069   1.108   1.279   1.514   1.282   1.239   0.861   0.891   1.004   0.966   0.928   0.968   0.987   0.929   1.142   1.353   1.747   1.750   1.746   1.447   1.517   1.247   1.194   0.874   0.966   0.977   1.210   1.021   1.053   1.115   0.818   1.004   1.090   0.880   1.049   0.859   0.995   1.078   1.170   1.137   1.011   1.291   1.028   1.391   1.281   1.269   1.144   1.283   1.262   1.370   1.556   1.562   1.489   1.633   1.823   1.497   1.765   1.295   1.039   1.526   1.301   0.997
   268.97    1.492   1.399   0.962   1.359   1.492   1.165   1.327   1.307   0.939   1.294   0.865   0.963   1.153   1.411   1.183   1.282   1.212   1.365   1.239   1.425   1.632   1.383   1.261   1.532   1.503   1.291   1.242   1.079   1.269   1.254   1.147   1.017   1.213   1.050   1.482   1.765   1.731   1.350   1.638   1.448   1.377   1.344   1.214   1.079   1.210   1.432   1.529   1.732   1.436   1.472   1.425   1.481   1.071   1.170   1.607   1.672   1.316   1.168   0.948   0.962   0.936   0.762   1.133   1.433   1.376   1.443   1.791   1.780   1.749   1.372   1.471   2.025   1.596   1.791   1.249   0.951   1.286   1.352   0.927   0.898   1.106   0.947   0.926   0.832   1.012   0.998   0.917   0.753   1.164   0.993   1.209   0.933   1.183   1.313   1.419   1.077   1.395   1.360   1.774   2.009   1.367   1.298   0.892   1.099   1.276   1.635   1.255   1.683   1.322   1.303   1.713   1.429   1.471
   258.62    1.143   1.361   1.033   1.244   1.475   1.461   1.003   1.127   1.379   1.064   1.351   1.050   1.216   1.068   1.146   0.953   1.021   1.012   1.183   1.437   1.346   1.627   1.851   1.238   1.447   1.328   1.205   1.040   1.324   1.276   1.363   1.192   1.181   1.451   1.519   1.457   1.239   1.354   1.229   1.710   1.852   1.570   1.622   1.602   1.272   1.174   1.197   1.196   1.193   1.198   1.203   0.995   1.126   1.442   1.282   1.764   1.314   0.937   1.022   1.154   0.881   0.902   1.367   1.217   1.600   1.415   1.816   1.386   1.509   1.364   1.737   1.877   1.980   1.767   1.566   1.548   1.208   0.911   0.881   1.022   0.837   1.313   1.197   1.016   1.321   1.150   0.898   0.945   1.232   1.275   0.969   1.102   0.934   1.131   1.527   1.197   1.167   1.146   1.479   1.664   1.579   1.074   0.933   0.789   1.323   1.476   1.446   1.670   1.378   1.681   1.744   1.299   1.260
   248.28    1.385   1.082   0.960   1.131   1.201   1.122   0.990   1.263   1.659   1.224   1.557   1.170   1.001   1.097   1.017   0.917   0.962   0.830   1.048   1.312   1.243   1.490   1.722   1.351   1.177   1.213   1.150   1.053   0.965   0.973   0.899   1.201   1.124   1.393   1.232   1.196   1.154   1.066   1.313   1.406   1.512   1.406   1.420   1.290   1.360   0.866   0.976   1.050   0.868   1.099   1.086   1.112   1.103   1.465   1.341   1.582   1.459   1.215   1.127   1.136   1.055   1.359   1.590   1.311   1.530   1.674   1.462   1.523   1.622   1.374   1.488   1.405   1.564   1.599   1.598   1.371   1.115   1.025   0.913   1.083   1.511   1.509   1.429   1.280   1.146   1.344   1.053   1.097   1.059   1.155   0.855   1.066   1.248   1.120   1.186   1.215   1.252   1.221   1.534   1.553   1.403   1.306   0.935   1.220   1.260   1.092   1.311   1.484   1.613   1.471   1.249   1.224   1.072
   237.93    1.198   1.262   1.060   1.000   1.013   1.312   1.176   1.321   1.489   1.331   1.773   1.576   1.499   1.103   1.006   1.101   0.669   0.896   1.283   1.145   1.295   1.498   1.463   1.498   1.084   1.206   1.027   0.965   0.755   0.803   1.007   0.922   1.266   1.411   1.674   1.465   1.770   1.765   1.196   1.416   1.316   1.192   1.171   1.418   1.225   0.976   0.971   1.178   0.893   0.926   0.959   0.924   1.274   1.171   1.386   1.248   1.447   1.327   0.867   1.025   1.327   1.706   1.464   1.269   1.274   1.528   1.500   1.035   1.529   1.515   1.628   1.182   1.178   1.283   1.675   1.399   1.213   0.924   1.046   1.066   1.291   1.489   1.094   0.906   1.104   1.448   1.242   0.903   0.880   1.194   1.074   1.373   0.965   1.043   1.221   1.367   0.979   1.231   1.217   1.281   1.251   1.029   1.217   1.109   1.103   1.145   1.017   1.230   1.314   1.496   1.091   1.018   1.033
   227.59    1.109   1.244   1.158   0.793   1.148   1.310   1.116   0.970   1.367   1.628   1.969   1.645   1.302   1.045   1.136   0.971   0.738   0.902   1.133   1.142   1.308   1.293   1.468   1.134   0.840   1.095   1.009   1.009   1.241   1.020   0.945   1.138   1.423   1.329   1.595   1.649   1.796   1.452   1.157   1.360   1.131   0.853   0.941   1.215   1.097   1.037   0.925   0.959   1.064   0.999   1.092   1.445   1.394   1.444   1.305   1.589   1.539   1.332   1.167   1.185   1.559   1.607   1.574   1.752   1.431   1.293   1.212   1.056   1.403   1.300   1.518   1.299   1.071   1.108   1.395   1.474   1.092   1.056   0.920   1.071   1.261   1.445   1.237   1.036   1.191   1.186   1.075   0.955   1.036   1.261   1.190   1.274   1.285   1.651   1.596   1.673   1.302   1.377   1.436   1.574   1.058   1.105   1.012   1.090   1.142   0.932   1.066   1.435   1.599   1.795   1.525   1.329   0.882
   217.24    1.150   1.183   0.809   0.912   1.138   1.044   1.351   1.334   1.260   1.510   1.601   1.847   1.712   1.184   1.061   1.098   0.850   0.947   1.213   1.051   1.313   0.961   1.307   1.056   0.996   0.930   1.012   1.123   1.269   1.041   1.098   1.189   1.124   1.451   1.692   1.644   1.746   1.248   1.164   1.563   1.611   0.923   1.059   1.155   1.334   0.946   1.219   1.325   0.900   1.219   1.360   1.608   1.673   1.312   1.342   1.680   1.705   1.549   1.168   1.336   1.361   1.330   1.236   1.421   1.290   1.393   1.031   1.276   1.092   1.362   1.305   1.124   1.192   1.517   1.511   1.038   1.175   1.022   1.019   1.239   1.224   1.147   1.266   1.157   0.856   1.197   0.942   0.982   1.314   0.948   1.104   1.363   1.518   1.712   1.664   1.047   1.243   1.334   1.322   1.498   1.284   1.259   1.482   1.224   0.982   0.853   1.095   0.905   1.509   1.582   1.331   1.321   1.196
   206.90    1.419   1.189   1.224   1.210   1.023   0.904   1.073   0.994   1.366   1.261   1.499   1.561   1.152   1.165   1.153   1.342   1.182   1.055   1.253   1.180   1.429   1.290   1.381   1.271   1.406   1.011   0.839   1.212   1.106   1.241   1.339   1.287   1.472   1.561   1.530   1.490   1.368   1.163   1.122   1.222   1.338   1.202   1.041   0.968   1.024   1.113   1.201   1.034   1.205   1.438   1.404   1.708   1.263   1.464   1.552   1.220   1.565   1.640   1.468   1.376   1.328   0.961   1.170   1.015   0.959   0.852   1.392   1.416   1.523   1.269   0.957   1.294   1.494   1.408   1.521   1.261   1.180   1.088   0.841   1.015   0.920   1.011   1.214   1.006   0.866   1.113   0.891   0.851   0.985   1.083   1.093   1.277   1.081   1.155   1.240   1.010   0.977   1.065   1.303   1.312   1.187   1.347   1.663   1.218   1.049   1.064   0.886   1.152   1.466   1.375   1.198   1.059   1.025
   196.55    1.454   1.309   1.330   1.169   1.071   0.988   1.168   1.351   1.273   1.292   1.058   1.241   1.142   1.177   1.225   1.320   1.196   1.263   1.231   1.005   1.143   1.489   1.674   1.393   1.379   0.919   0.784   0.982   1.054   0.987   1.176   1.304   1.298   1.487   1.147   0.990   1.448   0.866   0.840   0.884   1.269   1.328   0.923   0.892   0.739   0.988   0.991   0.769   1.163   1.336   1.093   1.506   1.679   1.597   1.513   1.292   1.559   1.712   1.350   1.093   0.949   0.873   0.902   0.983   0.853   0.983   1.444   1.441   1.522   0.983   0.920   1.126   1.435   1.262   1.648   1.807   1.377   1.389   1.401   0.947   1.199   1.172   0.809   1.032   1.078   1.145   0.867   0.774   0.827   1.032   0.877   1.002   1.017   0.927   0.923   0.995   1.009   1.118   1.261   1.143   1.259   1.800   1.893   1.725   1.529   0.998   1.112   1.106   1.180   1.287   1.371   0.777   1.061
   186.21    1.372   1.139   1.060   1.019   1.161   1.287   1.343   1.695   1.554   1.681   1.125   1.092   1.190   0.965   1.201   1.139   1.237   1.266   1.112   0.884   1.089   1.192   1.261   1.096   1.164   0.891   0.755   1.203   0.930   0.782   0.880   1.187   1.141   1.061   1.451   1.527   1.523   1.020   0.928   1.153   1.296   1.145   0.963   0.908   1.061   0.981   0.862   0.966   1.282   1.007   1.083   1.326   1.369   1.331   1.286   1.609   1.367   1.562   1.401   1.515   0.931   0.859   1.033   0.961   0.880   1.013   1.131   1.349   1.313   1.064   0.910   1.027   1.421   1.191   1.266   1.353   1.405   1.456   1.378   0.951   1.042   1.043   0.908   1.006   1.238   1.074   0.869   1.100   1.182   0.843   1.265   1.171   1.230   1.131   1.027   1.286   1.164   1.307   1.457   1.398   1.808   2.045   2.151   1.423   1.466   1.476   1.391   1.530   0.996   1.290   1.068   1.162   0.986
   175.86    1.488   1.323   1.228   0.922   1.106   1.192   1.512   1.365   1.420   1.204   1.113   1.115   1.206   1.234   1.279   0.966   1.175   0.865   0.894   0.885   0.942   0.965   1.153   1.158   0.954   0.898   0.852   0.910   1.120   1.152   0.939   1.237   1.015   1.318   1.283   1.430   1.409   1.025   0.866   1.070   1.318   1.253   1.192   0.878   0.979   1.048   1.151   1.124   1.501   1.250   1.006   1.447   1.718   1.329   1.512   1.576   1.575   1.420   1.673   1.359   1.137   1.157   1.131   1.007   0.872   1.013   1.065   1.140   1.204   1.111   0.953   1.105   1.441   1.014   1.004   0.936   1.151   1.331   1.403   1.245   0.895   0.901   0.868   1.103   1.095   1.038   0.877   1.198   1.276   0.987   1.213   1.261   1.117   1.171   1.283   1.110   0.897   0.992   1.487   1.969   1.609   1.835   1.851   2.004   1.350   1.556   1.508   1.214   0.954   1.227   1.152   0.866   1.221
   165.52    1.331   1.056   0.888   0.914   1.179   0.990   1.263   1.673   1.276   0.978   1.074   1.257   0.947   1.371   1.304   0.939   1.053   1.071   0.886   0.883   1.029   0.976   1.035   1.000   1.149   0.763   1.022   1.207   1.071   0.969   1.189   1.227   1.284   1.521   1.728   1.180   1.346   0.897   1.012   1.003   1.003   0.972   0.886   0.889   1.043   0.998   0.949   0.901   1.230   1.296   1.382   1.750   1.424   1.619   1.290   1.440   1.305   1.543   1.589   1.189   0.986   1.222   1.080   1.217   1.286   1.221   1.034   1.270   1.248   1.007   0.793   0.968   1.255   1.043   1.024   0.930   1.090   1.045   1.181   1.169   1.280   0.981   0.938   1.140   0.989   1.098   1.543   1.314   1.457   1.264   1.563   1.414   1.562   1.303   1.171   1.262   0.873   0.955   1.375   1.870   1.965   1.958   1.983   1.717   1.437   1.288   1.184   0.952   1.116   1.212   0.902   0.873   1.087
   155.17    1.321   1.180   0.862   1.133   1.206   1.132   1.585   1.643   1.322   1.446   1.077   1.057   1.246   1.197   1.082   1.235   1.121   1.214   0.828   1.020   1.031   1.077   1.020   1.071   1.129   0.827   0.947   1.191   1.058   1.004   1.076   1.302   1.418   1.565   1.395   1.562   1.134   1.156   1.026   1.019   1.148   1.058   0.997   0.900   1.178   1.005   0.956   0.975   1.195   1.203   1.511   1.797   1.900   1.779   1.530   1.318   1.125   1.303   1.361   1.472   1.192   0.976   1.151   1.469   1.155   1.148   0.814   1.131   1.083   1.218   1.125   1.155   1.354   0.942   0.999   1.103   1.277   1.019   1.012   0.883   1.302   1.151   1.315   1.093   0.989   1.361   1.660   1.544   1.498   1.383   1.645   1.282   1.651   1.363   1.037   0.977   0.999   1.108   1.573   1.698   1.848   1.419   1.472   1.528   1.390   1.558   1.671   1.488   1.050   1.180   1.065   0.872   1.186
   144.83    1.204   0.950   1.019   1.029   1.175   1.129   1.514   1.553   1.356   1.092   1.035   1.379   1.142   0.941   1.203   1.209   1.172   1.035   1.164   1.563   1.298   1.087   1.083   0.801   1.088   0.866   1.043   1.166   0.839   1.163   0.903   1.142   1.171   1.109   1.365   1.256   1.389   1.388   1.312   1.044   1.042   0.819   0.941   1.006   0.947   1.027   1.194   1.046   1.040   1.345   1.163   1.517   1.681   1.841   1.601   1.301   1.074   1.293   1.386   1.398   1.222   1.358   1.718   1.258   1.452   1.561   1.275   1.012   1.088   1.105   1.311   1.287   1.334   1.458   1.038   1.095   1.375   0.921   1.035   1.041   1.186   1.171   1.312   1.572   1.259   1.186   1.504   1.529   1.788   1.792   1.639   1.553   1.709   1.686   1.085   1.164   1.054   0.941   1.099   1.381   1.463   1.541   1.132   1.214   1.840   1.978   1.303   1.292   1.280   1.496   1.349   1.171   1.349
   134.48    1.479   1.374   1.072   1.161   1.017   1.052   1.481   1.645   1.223   1.292   1.339   1.277   0.862   0.835   0.947   1.161   1.055   0.993   1.246   1.615   1.429   1.483   1.085   0.836   1.048   0.897   0.999   1.005   1.101   1.075   0.958   1.102   1.108   1.115   1.350   1.220   1.173   1.227   1.488   1.142   1.075   0.934   1.262   1.236   0.804   1.123   0.995   0.948   1.028   1.096   0.936   1.207   1.189   1.255   1.525   1.548   1.216   1.311   1.005   1.482   1.879   1.865   1.636   1.647   1.313   1.405   1.230   0.863   1.059   0.947   0.873   1.205   1.240   1.204   1.368   1.576   1.423   1.128   0.881   1.092   1.271   1.427   1.202   1.321   1.363   1.411   1.375   1.186   1.533   1.473   1.333   1.426   1.904   1.388   1.111   0.927   1.036   1.119   1.051   1.264   1.096   1.154   1.379   1.572   1.860   1.763   1.311   1.361   1.337   1.430   1.465   1.149   1.169
   124.14    1.363   1.143   0.939   1.041   1.132   1.326   1.377   1.542   1.159   1.251   1.093   0.931   0.989   0.956   1.183   1.081   1.089   1.374   1.621   1.626   1.728   1.533   1.019   1.053   0.903   0.859   1.045   1.354   1.461   1.064   1.165   1.224   1.183   1.279   1.266   1.836   1.532   1.303   1.270   1.530   1.561   1.165   1.152   1.129   0.961   1.042   1.040   0.966   0.983   1.108   0.968   1.000   1.056   1.353   1.522   1.679   1.532   1.264   1.057   1.326   1.493   1.536   1.563   1.286   1.304   1.447   1.228   0.988   1.070   1.138   0.893   0.907   1.432   1.154   1.317   1.144   1.356   1.052   1.053   1.197   1.420   1.370   0.927   1.003   1.072   1.263   1.264   1.433   1.258   1.446   1.429   1.643   1.742   1.455   1.522   1.554   1.093   0.988   0.919   1.229   1.107   1.118   1.140   1.157   1.291   1.230   1.199   1.166   1.179   1.275   1.064   1.204   1.272
   113.79    0.935   1.247   1.252   1.141   1.097   1.291   1.103   1.087   1.100   1.049   1.142   0.934   1.026   1.005   1.058   0.955   1.645   1.649   1.641   1.802   1.923   1.388   1.465   1.272   1.001   1.061   0.998   1.314   1.260   1.405   0.938   1.075   1.206   0.932   1.148   1.650   1.840   2.003   1.489   1.574   1.500   1.042   0.845   0.993   1.035   1.508   1.311   0.982   0.840   1.036   1.118   1.037   1.155   1.280   1.526   1.412   1.262   1.533   1.215   1.307   1.196   1.120   0.952   1.201   1.145   1.137   1.420   1.177   0.934   0.958   1.087   1.348   1.532   1.399   1.407   1.475   1.649   1.644   1.670   1.176   1.279   1.209   1.378   1.376   1.133   1.209   1.157   1.116   0.829   1.088   1.017   1.190   1.192   1.289   1.171   1.062   1.170   1.316   1.110   1.300   1.317   1.051   0.867   0.959   0.936   1.191   0.825   0.872   0.729   1.045   1.106   1.258   0.979
   103.45    1.070   1.251   1.089   1.493   1.104   1.120   0.950   1.088   1.313   1.267   1.149   1.229   1.043   0.915   1.283   1.174   1.563   1.749   1.956   1.459   1.701   1.598   1.140   1.076   0.980   0.814   0.981   1.254   1.503   1.331   0.948   1.079   1.212   1.241   1.491   1.672   1.937   1.552   1.789   1.620   1.303   1.400   1.137   0.958   0.973   1.414   1.500   1.363   0.986   1.209   1.103   1.131   1.548   1.780   1.813   1.298   0.986   1.136   1.266   1.477   0.986   1.243   1.054   0.939   0.972   1.155   1.244   1.352   1.083   1.089   0.958   1.155   1.434   1.381   1.678   1.709   1.503   1.471   1.321   1.197   1.087   1.038   1.274   1.458   0.885   1.060   1.019   0.943   1.010   0.908   1.036   1.088   1.197   0.984   1.036   1.037   1.106   1.193   1.048   1.370   1.120   1.194   0.936   0.688   1.081   1.139   1.134   0.939   1.111   1.159   0.943   1.146   0.857
    93.10    1.200   1.297   1.248   1.476   1.437   0.926   1.372   1.522   1.110   1.318   1.236   1.004   0.887   1.046   1.121   1.101   1.436   1.469   1.651   1.544   1.485   1.645   1.588   1.208   1.041   1.152   0.862   0.963   1.199   1.242   1.148   1.022   1.020   1.058   1.359   1.507   1.482   1.512   1.586   1.474   1.266   1.185   0.901   0.932   1.214   1.574   1.259   1.437   1.315   0.958   0.943   1.144   1.341   1.455   1.548   1.493   1.513   1.130   1.085   1.292   1.112   0.909   0.860   1.173   0.809   0.990   1.135   1.069   0.991   1.069   1.298   1.243   1.373   1.312   1.376   1.642   1.536   1.294   1.383   1.175   1.245   0.983   1.238   1.268   1.205   1.052   1.074   1.097   1.239   1.194   1.134   1.257   1.048   1.000   0.971   0.922   1.052   1.055   1.135   0.996   1.150   1.057   1.344   1.003   1.036   1.100   1.151   0.777   1.042   1.246   1.158   1.183   1.212
    82.76    1.226   1.159   1.403   1.436   1.329   1.220   1.307   1.431   1.531   1.269   0.966   0.967   0.910   1.273   0.972   0.925   1.300   1.108   1.420   1.642   1.335   1.629   1.126   1.095   1.047   1.163   1.133   1.051   1.083   1.045   1.290   1.194   1.161   1.288   1.376   1.259   1.125   0.989   1.339   1.340   1.354   1.057   0.832   1.153   1.354   1.650   1.589   1.204   1.159   1.106   0.909   1.024   1.230   1.234   1.084   1.137   0.953   1.031   1.257   1.508   1.270   1.047   1.149   1.008   1.485   1.270   1.489   0.970   0.707   0.899   1.102   1.266   1.283   0.920   1.328   1.366   1.684   1.228   1.355   1.299   0.913   0.888   1.060   1.062   1.060   0.812   1.026   1.141   1.104   1.008   0.877   1.057   0.854   0.962   1.030   1.174   1.173   1.303   1.115   1.081   1.160   1.295   1.398   1.183   0.910   0.927   0.890   1.095   1.509   1.722   1.283   1.499   1.526
    72.41    1.153   1.167   1.232   1.241   1.125   1.144   1.209   1.174   1.217   1.135   0.885   0.891   0.995   1.221   0.967   0.978   1.196   1.451   1.191   1.274   1.517   1.474   1.329   1.150   1.040   1.163   1.025   0.986   1.216   1.488   1.203   1.179   1.142   1.297   1.170   1.016   0.901   1.029   1.166   1.196   1.265   0.879   1.107   1.229   1.074   1.317   1.290   1.026   1.128   0.907   0.913   0.881   0.928   1.077   0.813   0.952   0.926   0.974   1.050   1.281   1.468   1.216   1.015   1.249   1.343   1.504   1.523   1.351   1.157   1.047   1.138   1.312   1.431   1.124   1.359   1.475   1.591   1.535   1.265   1.338   1.095   1.181   1.247   0.949   0.873   0.937   1.004   0.944   0.972   0.849   0.871   0.992   1.017   1.168   0.936   1.110   1.133   1.229   1.464   1.231   1.463   1.385   1.457   1.111   0.866   0.916   0.826   1.048   1.472   1.620   1.615   1.213   1.345
    62.07    1.098   1.203   0.882   1.039   1.117   0.889   1.033   0.880   0.913   0.854   1.011   0.750   1.226   1.272   1.077   0.958   0.946   1.147   1.322   1.119   1.353   1.313   1.205   1.631   1.430   1.229   1.504   1.678   1.417   1.618   1.387   1.093   1.127   1.481   1.357   1.064   0.798   0.905   1.218   1.027   0.962   1.132   1.154   1.109   1.060   1.169   1.302   1.085   1.128   1.037   0.806   0.889   0.844   0.857   0.943   0.902   1.241   1.214   1.072   1.038   1.124   1.197   1.058   1.234   1.308   1.377   1.206   1.572   1.211   0.957   1.224   1.520   1.479   1.331   1.494   1.462   1.171   1.438   1.365   1.109   1.435   1.046   1.038   1.022   0.944   0.941   1.202   1.142   1.141   1.299   1.108   0.903   1.205   0.731   1.036   1.146   0.955   1.349   1.217   1.498   1.183   1.190   0.936   1.419   1.063   1.017   1.219   1.519   1.744   1.355   1.499   1.662   1.167
    51.72    1.129   0.937   0.903   0.918   1.187   1.457   1.316   0.915   0.876   0.829   1.061   0.929   0.983   1.137   0.983   1.068   1.087   0.902   1.211   0.903   1.182   1.077   1.485   1.567   1.294   1.288   1.429   1.394   1.186   1.395   1.494   1.159   0.876   1.267   1.244   1.290   1.121   1.059   0.992   0.976   1.185   0.938   0.860   1.010   1.237   1.152   0.880   1.117   1.217   1.155   1.106   1.007   1.001   0.847   0.913   1.117   1.422   1.693   1.246   1.120   1.229   1.105   0.965   1.155   1.243   1.114   1.078   1.241   1.220   1.171   1.172   1.097   1.311   1.352   1.636   1.333   1.583   1.492   1.425   1.245   1.297   1.512   1.314   1.086   0.875   0.873   1.144   1.335   1.401   1.173   1.252   1.011   0.969   0.964   1.068   1.465   1.078   1.304   1.660   1.580   1.465   1.268   1.348   1.549   1.101   1.300   1.403   1.688   1.649   1.778   1.414   1.515   1.248
    41.38    0.938   1.203   1.399   1.179   1.259   1.695   1.179   1.274   0.818   0.852   0.898   1.063   1.008   1.047   0.979   1.029   1.004   1.001   1.248   1.182   0.891   1.073   1.361   1.753   1.327   1.402   1.259   1.182   1.359   1.425   1.225   1.350   1.458   1.430   1.186   1.447   1.011   1.087   0.948   0.847   1.089   0.845   1.050   1.186   1.171   1.284   1.247   1.081   1.132   1.167   1.169   1.029   1.079   1.088   1.267   1.109   1.098   1.401   1.297   1.049   1.342   1.511   1.596   0.951   0.905   0.847   1.025   1.104   1.119   1.088   1.130   0.702   0.909   1.272   1.518   1.661   1.442   1.783   1.967   1.913   1.747   1.568   1.425   1.247   1.229   1.151   0.838   1.066   1.128   1.152   1.040   1.023   0.924   1.090   1.026   1.476   1.330   1.139   1.482   1.722   1.693   1.538   1.671   1.843   1.618   1.321   1.454   1.512   1.491   1.575   1.551   1.451   1.221
    31.03    1.159   1.141   1.095   1.513   1.866   1.672   1.650   1.189   0.911   0.823   1.063   1.231   0.939   0.984   0.990   0.906   1.005   1.136   0.977   1.139   1.182   1.135   0.956   1.317   1.606   1.478   1.695   1.533   1.551   1.368   1.187   1.360   1.259   1.195   1.191   1.157   1.326   1.384   1.061   0.992   1.275   1.248   1.305   0.982   1.184   1.025   0.826   0.844   1.049   1.207   0.991   1.261   1.139   1.339   1.461   1.173   1.228   1.531   1.417   1.431   1.270   1.565   1.262   1.192   0.843   1.220   1.162   1.477   1.438   1.354   0.996   0.805   0.887   1.167   1.257   1.499   1.614   2.249   2.540   2.387   1.777   1.506   1.681   1.531   1.139   0.998   1.032   0.828   0.946   0.947   1.074   0.992   0.990   1.040   1.271   1.344   1.425   1.268   1.206   1.241   1.327   1.131   1.374   1.490   1.566   1.374   1.687   1.195   1.304   1.401   1.227   1.109   1.271
    20.69    1.530   1.183   1.398   1.377   1.743   1.447   1.159   1.338   1.189   1.104   0.934   0.954   0.901   1.111   0.868   1.023   1.094   1.208   1.207   0.987   0.984   1.154   0.928   0.919   1.191   1.389   1.531   1.379   1.233   1.385   1.193   1.357   1.251   1.439   1.380   1.261   1.438   1.163   0.984   1.203   1.070   1.251   1.568   0.936   1.112   0.907   1.085   1.213   1.062   0.963   1.283   1.231   1.375   1.600   1.474   1.093   1.384   1.190   1.407   1.277   1.112   1.483   1.406   0.849   0.911   1.109   1.037   1.621   1.694   1.637   1.476   1.085   0.785   1.169   1.431   1.812   1.984   2.256   2.281   2.160   1.530   1.775   1.300   1.438   1.383   1.424   1.162   1.384   0.978   1.191   1.059   0.875   1.050   1.079   1.478   1.071   1.087   1.228   0.977   1.110   0.948   0.967   1.001   1.060   1.351   1.419   1.721   1.433   0.988   1.207   1.175   0.880   1.151
    10.34    1.257   1.052   0.986   1.308   1.506   1.527   1.380   1.263   0.811   0.903   0.855   0.958   0.957   0.991   0.970   0.820   0.820   1.091   0.915   1.052   1.116   1.149   0.800   1.064   0.956   1.058   1.254   1.357   1.276   1.386   1.125   1.349   1.170   1.216   1.323   1.528   1.401   1.255   1.050   1.376   1.177   1.186   1.482   1.376   1.086   0.884   0.867   1.174   1.266   1.353   1.534   1.470   1.428   1.491   1.659   1.405   1.351   1.510   1.284   1.106   1.209   1.328   1.425   1.207   0.927   1.099   1.471   1.566   1.494   1.441   1.279   0.864   1.193   1.159   1.456   1.623   1.728   1.870   2.028   1.717   1.384   1.561   1.534   1.236   1.163   1.321   1.311   1.354   0.833   1.158   1.163   1.156   1.512   1.465   1.584   1.533   1.029   0.892   0.990   1.119   0.922   0.966   1.137   0.976   1.330   1.328   1.751   1.274   1.418   1.041   1.275   1.203   1.563
     0.00    1.268   0.809   1.054   1.179   1.071   1.314   0.914   1.026   1.310   1.218   1.430   0.961   0.937   0.987   1.116   0.789   0.891   0.999   0.831   0.897   1.081   1.033   0.950   1.112   1.042   1.110   1.029   1.223   1.151   1.314   1.483   1.338   1.386   1.198   1.255   1.359   0.974   1.113   1.346   1.295   1.439   1.212   1.346   1.003   1.333   1.169   1.214   1.015   1.155   1.030   1.375   1.052   1.165   1.308   1.554   1.186   1.395   1.396   1.106   1.005   1.001   1.213   1.393   1.030   1.263   1.505   1.533   1.360   1.209   1.252   1.050   0.880   1.071   1.189   1.351   1.467   1.424   1.621   1.907   1.422   1.587   1.842   1.400   1.053   1.306   1.148   1.244   1.120   1.026   1.120   0.895   0.976   1.294   1.376   1.526   1.115   1.182   1.134   1.413   1.494   1.334   1.172   1.498   1.481   1.577   1.630   1.752   1.591   1.198   1.203   1.323   1.331   1.596

   Height   Standard deviation at grid points for the v component:
   300.00    1.199   1.199   1.199   1.199   1.199   1.199   1.199   1.199   1.199   1.199   1.199   1.199   1.199   1.199   1.199   1.199   1.199   1.199   1.199   1.199   1.199   1.199   1.199   1.199   1.199   1.199   1.199   1.199   1.199   1.199   1.199   1.199   1.199   1.199   1.199   1.199   1.199   1.199   1.199   1.199   1.199   1.199   1.199   1.199   1.199   1.199   1.199   1.199   1.199   1.199   1.199   1.199   1.199   1.199   1.199   1.199   1.199   1.199   1.199   1.199   1.199   1.199   1.199   1.199   1.199   1.199   1.199   1.199   1.199   1.199   1.199   1.199   1.199   1.199   1.199   1.199   1.199   1.199   1.199   1.199   1.199   1.199   1.199   1.199   1.199   1.199   1.199   1.199   1.199   1.199   1.199   1.199   1.199   1.199   1.199   1.199   1.199   1.199   1.199   1.199   1.199   1.199   1.199   1.199   1.199   1.199   1.199   1.199   1.199   1.199   1.199   1.199   1.199
   289.66    1.199   1.199   1.199   1.199   1.199   1.199   1.199   1.199   1.199   1.199   1.199   1.199   1.199   1.199   1.199   1.199   1.199   1.199   1.199   1.199   1.199   1.199   1.199   1.199   1.199   1.199   1.199   1.199   1.199   1.199   1.199   1.199   1.199   1.199   1.199   1.199   1.199   1.199   1.199   1.199   1.199   1.199   1.199   1.199   1.199   1.199   1.199   1.199   1.199   1.199   1.199   1.199   1.199   1.199   1.199   1.199   1.199   1.199   1.199   1.199   1.199   1.199   1.199   1.199   1.199   1.199   1.199   1.199   1.199   1.199   1.199   1.199   1.199   1.199   1.199   1.199   1.199   1.199   1.199   1.199   1.199   1.199   1.199   1.199   1.199   1.199   1.199   1.199   1.199   1.199   1.199   1.199   1.199   1.199   1.199   1.199   1.199   1.199   1.199   1.199   1.199   1.199   1.199   1.199   1.199   1.199   1.199   1.199   1.199   1.199   1.199   1.199   1.199
   279.31    1.199   1.199   1.199   1.199   1.199   1.199   1.199   1.199   1.199   1.199   1.199   1.199   1.199   1.199   1.199   1.199   1.199   1.199   1.199   1.199   1.199   1.199   1.199   1.199   1.199   1.199   1.199   1.199   1.199   1.199   1.199   1.199   1.199   1.199   1.199   1.199   1.199   1.199   1.199   1.199   1.199   1.199   1.199   1.199   1.199   1.199   1.199   1.199   1.199   1.199   1.199   1.199   1.199   1.199   1.199   1.199   1.199   1.199   1.199   1.199   1.199   1.199   1.199   1.199   1.199   1.199   1.199   1.199   1.199   1.199   1.199   1.199   1.199   1.199   1.199   1.199   1.199   1.199   1.199   1.199   1.199   1.199   1.199   1.199   1.199   1.199   1.199   1.199   1.199   1.199   1.199   1.199   1.199   1.199   1.199   1.199   1.199   1.199   1.199   1.199   1.199   1.199   1.199   1.199   1.199   1.199   1.199   1.199   1.199   1.199   1.199   1.199   1.199
   268.97    1.199   1.199   1.199   1.199   1.199   1.199   1.199   1.199   1.199   1.199   1.199   1.199   1.199   1.199   1.199   1.199   1.199   1.199   1.199   1.199   1.199   1.199   1.199   1.199   1.199   1.199   1.199   1.199   1.199   1.199   1.199   1.199   1.199   1.199   1.199   1.199   1.199   1.199   1.199   1.199   1.199   1.199   1.199   1.199   1.199   1.199   1.199   1.199   1.199   1.199   1.199   1.199   1.199   1.199   1.199   1.199   1.199   1.199   1.199   1.199   1.199   1.199   1.199   1.199   1.199   1.199   1.199   1.199   1.199   1.199   1.199   1.199   1.199   1.199   1.199   1.199   1.199   1.199   1.199   1.199   1.199   1.199   1.199   1.199   1.199   1.199   1.199   1.199   1.199   1.199   1.199   1.199   1.199   1.199   1.199   1.199   1.199   1.199   1.199   1.199   1.199   1.199   1.199   1.199   1.199   1.199   1.199   1.199   1.199   1.199   1.199   1.199   1.199
   258.62    1.199   1.199   1.199   1.199   1.199   1.199   1.199   1.199   1.199   1.199   1.199   1.199   1.199   1.199   1.199   1.199   1.199   1.199   1.199   1.199   1.199   1.199   1.199   1.199   1.199   1.199   1.199   1.199   1.199   1.199   1.199   1.199   1.199   1.199   1.199   1.199   1.199   1.199   1.199   1.199   1.199   1.199   1.199   1.199   1.199   1.199   1.199   1.199   1.199   1.199   1.199   1.199   1.199   1.199   1.199   1.199   1.199   1.199   1.199   1.199   1.199   1.199   1.199   1.199   1.199   1.199   1.199   1.199   1.199   1.199   1.199   1.199   1.199   1.199   1.199   1.199   1.199   1.199   1.199   1.199   1.199   1.199   1.199   1.199   1.199   1.199   1.199   1.199   1.199   1.199   1.199   1.199   1.199   1.199   1.199   1.199   1.199   1.199   1.199   1.199   1.199   1.199   1.199   1.199   1.199   1.199   1.199   1.199   1.199   1.199   1.199   1.199   1.199
   248.28    1.199   1.199   1.199   1.199   1.199   1.199   1.199   1.199   1.199   1.199   1.199   1.199   1.199   1.199   1.199   1.199   1.199   1.199   1.199   1.199   1.199   1.199   1.199   1.199   1.199   1.199   1.199   1.199   1.199   1.199   1.199   1.199   1.199   1.199   1.199   1.199   1.199   1.199   1.199   1.199   1.199   1.199   1.199   1.199   1.199   1.199   1.199   1.199   1.199   1.199   1.199   1.199   1.199   1.199   1.199   1.199   1.199   1.199   1.199   1.199   1.199   1.199   1.199   1.199   1.199   1.199   1.199   1.199   1.199   1.199   1.199   1.199   1.199   1.199   1.199   1.199   1.199   1.199   1.199   1.199   1.199   1.199   1.199   1.199   1.199   1.199   1.199   1.199   1.199   1.199   1.199   1.199   1.199   1.199   1.199   1.199   1.199   1.199   1.199   1.199   1.199   1.199   1.199   1.199   1.199   1.199   1.199   1.199   1.199   1.199   1.199   1.199   1.199
   237.93    1.199   1.199   1.199   1.199   1.199   1.199   1.199   1.199   1.199   1.199   1.199   1.199   1.199   1.199   1.199   1.199   1.199   1.199   1.199   1.199   1.199   1.199   1.199   1.199   1.199   1.199   1.199   1.199   1.199   1.199   1.199   1.199   1.199   1.199   1.199   1.199   1.199   1.199   1.199   1.199   1.199   1.199   1.199   1.199   1.199   1.199   1.199   1.199   1.199   1.199   1.199   1.199   1.199   1.199   1.199   1.199   1.199   1.199   1.199   1.199   1.199   1.199   1.199   1.199   1.199   1.199   1.199   1.199   1.199   1.199   1.199   1.199   1.199   1.199   1.199   1.199   1.199   1.199   1.199   1.199   1.199   1.199   1.199   1.199   1.199   1.199   1.199   1.199   1.199   1.199   1.199   1.199   1.199   1.199   1.199   1.199   1.199   1.199   1.199   1.199   1.199   1.199   1.199   1.199   1.199   1.199   1.199   1.199   1.199   1.199   1.199   1.199   1.199
   227.59    1.199   1.199   1.199   1.199   1.199   1.199   1.199   1.199   1.199   1.199   1.199   1.199   1.199   1.199   1.199   1.199   1.199   1.199   1.199   1.199   1.199   1.199   1.199   1.199   1.199   1.199   1.199   1.199   1.199   1.199   1.199   1.199   1.199   1.199   1.199   1.199   1.199   1.199   1.199   1.199   1.199   1.199   1.199   1.199   1.199   1.199   1.199   1.199   1.199   1.199   1.199   1.199   1.199   1.199   1.199   1.199   1.199   1.199   1.199   1.199   1.199   1.199   1.199   1.199   1.199   1.199   1.199   1.199   1.199   1.199   1.199   1.199   1.199   1.199   1.199   1.199   1.199   1.199   1.199   1.199   1.199   1.199   1.199   1.199   1.199   1.199   1.199   1.199   1.199   1.199   1.199   1.199   1.199   1.199   1.199   1.199   1.199   1.199   1.199   1.199   1.199   1.199   1.199   1.199   1.199   1.199   1.199   1.199   1.199   1.199   1.199   1.199   1.199
   217.24    1.199   1.199   1.199   1.199   1.199   1.199   1.199   1.199   1.199   1.199   1.199   1.199   1.199   1.199   1.199   1.199   1.199   1.199   1.199   1.199   1.199   1.199   1.199   1.199   1.199   1.199   1.199   1.199   1.199   1.199   1.199   1.199   1.199   1.199   1.199   1.199   1.199   1.199   1.199   1.199   1.199   1.199   1.199   1.199   1.199   1.199   1.199   1.199   1.199   1.199   1.199   1.199   1.199   1.199   1.199   1.199   1.199   1.199   1.199   1.199   1.199   1.199   1.199   1.199   1.199   1.199   1.199   1.199   1.199   1.199   1.199   1.199   1.199   1.199   1.199   1.199   1.199   1.199   1.199   1.199   1.199   1.199   1.199   1.199   1.199   1.199   1.199   1.199   1.199   1.199   1.199   1.199   1.199   1.199   1.199   1.199   1.199   1.199   1.199   1.199   1.199   1.199   1.199   1.199   1.199   1.199   1.199   1.199   1.199   1.199   1.199   1.199   1.199
   206.90    1.199   1.199   1.199   1.199   1.199   1.199   1.199   1.199   1.199   1.199   1.199   1.199   1.199   1.199   1.199   1.199   1.199   1.199   1.199   1.199   1.199   1.199   1.199   1.199   1.199   1.199   1.199   1.199   1.199   1.199   1.199   1.199   1.199   1.199   1.199   1.199   1.199   1.199   1.199   1.199   1.199   1.199   1.199   1.199   1.199   1.199   1.199   1.199   1.199   1.199   1.199   1.199   1.199   1.199   1.199   1.199   1.199   1.199   1.199   1.199   1.199   1.199   1.199   1.199   1.199   1.199   1.199   1.199   1.199   1.199   1.199   1.199   1.199   1.199   1.199   1.199   1.199   1.199   1.199   1.199   1.199   1.199   1.199   1.199   1.199   1.199   1.199   1.199   1.199   1.199   1.199   1.199   1.199   1.199   1.199   1.199   1.199   1.199   1.199   1.199   1.199   1.199   1.199   1.199   1.199   1.199   1.199   1.199   1.199   1.199   1.199   1.199   1.199
   196.55    1.199   1.199   1.199   1.199   1.199   1.199   1.199   1.199   1.199   1.199   1.199   1.199   1.199   1.199   1.199   1.199   1.199   1.199   1.199   1.199   1.199   1.199   1.199   1.199   1.199   1.199   1.199   1.199   1.199   1.199   1.199   1.199   1.199   1.199   1.199   1.199   1.199   1.199   1.199   1.199   1.199   1.199   1.199   1.199   1.199   1.199   1.199   1.199   1.199   1.199   1.199   1.199   1.199   1.199   1.199   1.199   1.199   1.199   1.199   1.199   1.199   1.199   1.199   1.199   1.199   1.199   1.199   1.199   1.199   1.199   1.199   1.199   1.199   1.199   1.199   1.199   1.199   1.199   1.199   1.199   1.199   1.199   1.199   1.199   1.199   1.199   1.199   1.199   1.199   1.199   1.199   1.199   1.199   1.199   1.199   1.199   1.199   1.199   1.199   1.199   1.199   1.199   1.199   1.199   1.199   1.199   1.199   1.199   1.199   1.199   1.199   1.199   1.199
   186.21    1.199   1.199   1.199   1.199   1.199   1.199   1.199   1.199   1.199   1.199   1.199   1.199   1.199   1.199   1.199   1.199   1.199   1.199   1.199   1.199   1.199   1.199   1.199   1.199   1.199   1.199   1.199   1.199   1.199   1.199   1.199   1.199   1.199   1.199   1.199   1.199   1.199   1.199   1.199   1.199   1.199   1.199   1.199   1.199   1.199   1.199   1.199   1.199   1.199   1.199   1.199   1.199   1.199   1.199   1.199   1.199   1.199   1.199   1.199   1.199   1.199   1.199   1.199   1.199   1.199   1.199   1.199   1.199   1.199   1.199   1.199   1.199   1.199   1.199   1.199   1.199   1.199   1.199   1.199   1.199   1.199   1.199   1.199   1.199   1.199   1.199   1.199   1.199   1.199   1.199   1.199   1.199   1.199   1.199   1.199   1.199   1.199   1.199   1.199   1.199   1.199   1.199   1.199   1.199   1.199   1.199   1.199   1.199   1.199   1.199   1.199   1.199   1.199
   175.86    1.199   1.199   1.199   1.199   1.199   1.199   1.199   1.199   1.199   1.199   1.199   1.199   1.199   1.199   1.199   1.199   1.199   1.199   1.199   1.199   1.199   1.199   1.199   1.199   1.199   1.199   1.199   1.199   1.199   1.199   1.199   1.199   1.199   1.199   1.199   1.199   1.199   1.199   1.199   1.199   1.199   1.199   1.199   1.199   1.199   1.199   1.199   1.199   1.199   1.199   1.199   1.199   1.199   1.199   1.199   1.199   1.199   1.199   1.199   1.199   1.199   1.199   1.199   1.199   1.199   1.199   1.199   1.199   1.199   1.199   1.199   1.199   1.199   1.199   1.199   1.199   1.199   1.199   1.199   1.199   1.199   1.199   1.199   1.199   1.199   1.199   1.199   1.199   1.199   1.199   1.199   1.199   1.199   1.199   1.199   1.199   1.199   1.199   1.199   1.199   1.199   1.199   1.199   1.199   1.199   1.199   1.199   1.199   1.199   1.199   1.199   1.199   1.199
   165.52    1.199   1.199   1.199   1.199   1.199   1.199   1.199   1.199   1.199   1.199   1.199   1.199   1.199   1.199   1.199   1.199   1.199   1.199   1.199   1.199   1.199   1.199   1.199   1.199   1.199   1.199   1.199   1.199   1.199   1.199   1.199   1.199   1.199   1.199   1.199   1.199   1.199   1.199   1.199   1.199   1.199   1.199   1.199   1.199   1.199   1.199   1.199   1.199   1.199   1.199   1.199   1.199   1.199   1.199   1.199   1.199   1.199   1.199   1.199   1.199   1.199   1.199   1.199   1.199   1.199   1.199   1.199   1.199   1.199   1.199   1.199   1.199   1.199   1.199   1.199   1.199   1.199   1.199   1.199   1.199   1.199   1.199   1.199   1.199   1.199   1.199   1.199   1.199   1.199   1.199   1.199   1.199   1.199   1.199   1.199   1.199   1.199   1.199   1.199   1.199   1.199   1.199   1.199   1.199   1.199   1.199   1.199   1.199   1.199   1.199   1.199   1.199   1.199
   155.17    1.199   1.199   1.199   1.199   1.199   1.199   1.199   1.199   1.199   1.199   1.199   1.199   1.199   1.199   1.199   1.199   1.199   1.199   1.199   1.199   1.199   1.199   1.199   1.199   1.199   1.199   1.199   1.199   1.199   1.199   1.199   1.199   1.199   1.199   1.199   1.199   1.199   1.199   1.199   1.199   1.199   1.199   1.199   1.199   1.199   1.199   1.199   1.199   1.199   1.199   1.199   1.199   1.199   1.199   1.199   1.199   1.199   1.199   1.199   1.199   1.199   1.199   1.199   1.199   1.199   1.199   1.199   1.199   1.199   1.199   1.199   1.199   1.199   1.199   1.199   1.199   1.199   1.199   1.199   1.199   1.199   1.199   1.199   1.199   1.199   1.199   1.199   1.199   1.199   1.199   1.199   1.199   1.199   1.199   1.199   1.199   1.199   1.199   1.199   1.199   1.199   1.199   1.199   1.199   1.199   1.199   1.199   1.199   1.199   1.199   1.199   1.199   1.199
   144.83    1.199   1.199   1.199   1.199   1.199   1.199   1.199   1.199   1.199   1.199   1.199   1.199   1.199   1.199   1.199   1.199   1.199   1.199   1.199   1.199   1.199   1.199   1.199   1.199   1.199   1.199   1.199   1.199   1.199   1.199   1.199   1.199   1.199   1.199   1.199   1.199   1.199   1.199   1.199   1.199   1.199   1.199   1.199   1.199   1.199   1.199   1.199   1.199   1.199   1.199   1.199   1.199   1.199   1.199   1.199   1.199   1.199   1.199   1.199   1.199   1.199   1.199   1.199   1.199   1.199   1.199   1.199   1.199   1.199   1.199   1.199   1.199   1.199   1.199   1.199   1.199   1.199   1.199   1.199   1.199   1.199   1.199   1.199   1.199   1.199   1.199   1.199   1.199   1.199   1.199   1.199   1.199   1.199   1.199   1.199   1.199   1.199   1.199   1.199   1.199   1.199   1.199   1.199   1.199   1.199   1.199   1.199   1.199   1.199   1.199   1.199   1.199   1.199
   134.48    1.199   1.199   1.199   1.199   1.199   1.199   1.199   1.199   1.199   1.199   1.199   1.199   1.199   1.199   1.199   1.199   1.199   1.199   1.199   1.199   1.199   1.199   1.199   1.199   1.199   1.199   1.199   1.199   1.199   1.199   1.199   1.199   1.199   1.199   1.199   1.199   1.199   1.199   1.199   1.199   1.199   1.199   1.199   1.199   1.199   1.199   1.199   1.199   1.199   1.199   1.199   1.199   1.199   1.199   1.199   1.199   1.199   1.199   1.199   1.199   1.199   1.199   1.199   1.199   1.199   1.199   1.199   1.199   1.199   1.199   1.199   1.199   1.199   1.199   1.199   1.199   1.199   1.199   1.199   1.199   1.199   1.199   1.199   1.199   1.199   1.199   1.199   1.199   1.199   1.199   1.199   1.199   1.199   1.199   1.199   1.199   1.199   1.199   1.199   1.199   1.199   1.199   1.199   1.199   1.199   1.199   1.199   1.199   1.199   1.199   1.199   1.199   1.199
   124.14    1.199   1.199   1.199   1.199   1.199   1.199   1.199   1.199   1.199   1.199   1.199   1.199   1.199   1.199   1.199   1.199   1.199   1.199   1.199   1.199   1.199   1.199   1.199   1.199   1.199   1.199   1.199   1.199   1.199   1.199   1.199   1.199   1.199   1.199   1.199   1.199   1.199   1.199   1.199   1.199   1.199   1.199   1.199   1.199   1.199   1.199   1.199   1.199   1.199   1.199   1.199   1.199   1.199   1.199   1.199   1.199   1.199   1.199   1.199   1.199   1.199   1.199   1.199   1.199   1.199   1.199   1.199   1.199   1.199   1.199   1.199   1.199   1.199   1.199   1.199   1.199   1.199   1.199   1.199   1.199   1.199   1.199   1.199   1.199   1.199   1.199   1.199   1.199   1.199   1.199   1.199   1.199   1.199   1.199   1.199   1.199   1.199   1.199   1.199   1.199   1.199   1.199   1.199   1.199   1.199   1.199   1.199   1.199   1.199   1.199   1.199   1.199   1.199
   113.79    1.199   1.199   1.199   1.199   1.199   1.199   1.199   1.199   1.199   1.199   1.199   1.199   1.199   1.199   1.199   1.199   1.199   1.199   1.199   1.199   1.199   1.199   1.199   1.199   1.199   1.199   1.199   1.199   1.199   1.199   1.199   1.199   1.199   1.199   1.199   1.199   1.199   1.199   1.199   1.199   1.199   1.199   1.199   1.199   1.199   1.199   1.199   1.199   1.199   1.199   1.199   1.199   1.199   1.199   1.199   1.199   1.199   1.199   1.199   1.199   1.199   1.199   1.199   1.199   1.199   1.199   1.199   1.199   1.199   1.199   1.199   1.199   1.199   1.199   1.199   1.199   1.199   1.199   1.199   1.199   1.199   1.199   1.199   1.199   1.199   1.199   1.199   1.199   1.199   1.199   1.199   1.199   1.199   1.199   1.199   1.199   1.199   1.199   1.199   1.199   1.199   1.199   1.199   1.199   1.199   1.199   1.199   1.199   1.199   1.199   1.199   1.199   1.199
   103.45    1.199   1.199   1.199   1.199   1.199   1.199   1.199   1.199   1.199   1.199   1.199   1.199   1.199   1.199   1.199   1.199   1.199   1.199   1.199   1.199   1.199   1.199   1.199   1.199   1.199   1.199   1.199   1.199   1.199   1.199   1.199   1.199   1.199   1.199   1.199   1.199   1.199   1.199   1.199   1.199   1.199   1.199   1.199   1.199   1.199   1.199   1.199   1.199   1.199   1.199   1.199   1.199   1.199   1.199   1.199   1.199   1.199   1.199   1.199   1.199   1.199   1.199   1.199   1.199   1.199   1.199   1.199   1.199   1.199   1.199   1.199   1.199   1.199   1.199   1.199   1.199   1.199   1.199   1.199   1.199   1.199   1.199   1.199   1.199   1.199   1.199   1.199   1.199   1.199   1.199   1.199   1.199   1.199   1.199   1.199   1.199   1.199   1.199   1.199   1.199   1.199   1.199   1.199   1.199   1.199   1.199   1.199   1.199   1.199   1.199   1.199   1.199   1.199
    93.10    1.199   1.199   1.199   1.199   1.199   1.199   1.199   1.199   1.199   1.199   1.199   1.199   1.199   1.199   1.199   1.199   1.199   1.199   1.199   1.199   1.199   1.199   1.199   1.199   1.199   1.199   1.199   1.199   1.199   1.199   1.199   1.199   1.199   1.199   1.199   1.199   1.199   1.199   1.199   1.199   1.199   1.199   1.199   1.199   1.199   1.199   1.199   1.199   1.199   1.199   1.199   1.199   1.199   1.199   1.199   1.199   1.199   1.199   1.199   1.199   1.199   1.199   1.199   1.199   1.199   1.199   1.199   1.199   1.199   1.199   1.199   1.199   1.199   1.199   1.199   1.199   1.199   1.199   1.199   1.199   1.199   1.199   1.199   1.199   1.199   1.199   1.199   1.199   1.199   1.199   1.199   1.199   1.199   1.199   1.199   1.199   1.199   1.199   1.199   1.199   1.199   1.199   1.199   1.199   1.199   1.199   1.199   1.199   1.199   1.199   1.199   1.199   1.199
    82.76    1.199   1.199   1.199   1.199   1.199   1.199   1.199   1.199   1.199   1.199   1.199   1.199   1.199   1.199   1.199   1.199   1.199   1.199   1.199   1.199   1.199   1.199   1.199   1.199   1.199   1.199   1.199   1.199   1.199   1.199   1.199   1.199   1.199   1.199   1.199   1.199   1.199   1.199   1.199   1.199   1.199   1.199   1.199   1.199   1.199   1.199   1.199   1.199   1.199   1.199   1.199   1.199   1.199   1.199   1.199   1.199   1.199   1.199   1.199   1.199   1.199   1.199   1.199   1.199   1.199   1.199   1.199   1.199   1.199   1.199   1.199   1.199   1.199   1.199   1.199   1.199   1.199   1.199   1.199   1.199   1.199   1.199   1.199   1.199   1.199   1.199   1.199   1.199   1.199   1.199   1.199   1.199   1.199   1.199   1.199   1.199   1.199   1.199   1.199   1.199   1.199   1.199   1.199   1.199   1.199   1.199   1.199   1.199   1.199   1.199   1.199   1.199   1.199
    72.41    1.199   1.199   1.199   1.199   1.199   1.199   1.199   1.199   1.199   1.199   1.199   1.199   1.199   1.199   1.199   1.199   1.199   1.199   1.199   1.199   1.199   1.199   1.199   1.199   1.199   1.199   1.199   1.199   1.199   1.199   1.199   1.199   1.199   1.199   1.199   1.199   1.199   1.199   1.199   1.199   1.199   1.199   1.199   1.199   1.199   1.199   1.199   1.199   1.199   1.199   1.199   1.199   1.199   1.199   1.199   1.199   1.199   1.199   1.199   1.199   1.199   1.199   1.199   1.199   1.199   1.199   1.199   1.199   1.199   1.199   1.199   1.199   1.199   1.199   1.199   1.199   1.199   1.199   1.199   1.199   1.199   1.199   1.199   1.199   1.199   1.199   1.199   1.199   1.199   1.199   1.199   1.199   1.199   1.199   1.199   1.199   1.199   1.199   1.199   1.199   1.199   1.199   1.199   1.199   1.199   1.199   1.199   1.199   1.199   1.199   1.199   1.199   1.199
    62.07    1.199   1.199   1.199   1.199   1.199   1.199   1.199   1.199   1.199   1.199   1.199   1.199   1.199   1.199   1.199   1.199   1.199   1.199   1.199   1.199   1.199   1.199   1.199   1.199   1.199   1.199   1.199   1.199   1.199   1.199   1.199   1.199   1.199   1.199   1.199   1.199   1.199   1.199   1.199   1.199   1.199   1.199   1.199   1.199   1.199   1.199   1.199   1.199   1.199   1.199   1.199   1.199   1.199   1.199   1.199   1.199   1.199   1.199   1.199   1.199   1.199   1.199   1.199   1.199   1.199   1.199   1.199   1.199   1.199   1.199   1.199   1.199   1.199   1.199   1.199   1.199   1.199   1.199   1.199   1.199   1.199   1.199   1.199   1.199   1.199   1.199   1.199   1.199   1.199   1.199   1.199   1.199   1.199   1.199   1.199   1.199   1.199   1.199   1.199   1.199   1.199   1.199   1.199   1.199   1.199   1.199   1.199   1.199   1.199   1.199   1.199   1.199   1.199
    51.72    1.199   1.199   1.199   1.199   1.199   1.199   1.199   1.199   1.199   1.199   1.199   1.199   1.199   1.199   1.199   1.199   1.199   1.199   1.199   1.199   1.199   1.199   1.199   1.199   1.199   1.199   1.199   1.199   1.199   1.199   1.199   1.199   1.199   1.199   1.199   1.199   1.199   1.199   1.199   1.199   1.199   1.199   1.199   1.199   1.199   1.199   1.199   1.199   1.199   1.199   1.199   1.199   1.199   1.199   1.199   1.199   1.199   1.199   1.199   1.199   1.199   1.199   1.199   1.199   1.199   1.199   1.199   1.199   1.199   1.199   1.199   1.199   1.199   1.199   1.199   1.199   1.199   1.199   1.199   1.199   1.199   1.199   1.199   1.199   1.199   1.199   1.199   1.199   1.199   1.199   1.199   1.199   1.199   1.199   1.199   1.199   1.199   1.199   1.199   1.199   1.199   1.199   1.199   1.199   1.199   1.199   1.199   1.199   1.199   1.199   1.199   1.199   1.199
    41.38    1.199   1.199   1.199   1.199   1.199   1.199   1.199   1.199   1.199   1.199   1.199   1.199   1.199   1.199   1.199   1.199   1.199   1.199   1.199   1.199   1.199   1.199   1.199   1.199   1.199   1.199   1.199   1.199   1.199   1.199   1.199   1.199   1.199   1.199   1.199   1.199   1.199   1.199   1.199   1.199   1.199   1.199   1.199   1.199   1.199   1.199   1.199   1.199   1.199   1.199   1.199   1.199   1.199   1.199   1.199   1.199   1.199   1.199   1.199   1.199   1.199   1.199   1.199   1.199   1.199   1.199   1.199   1.199   1.199   1.199   1.199   1.199   1.199   1.199   1.199   1.199   1.199   1.199   1.199   1.199   1.199   1.199   1.199   1.199   1.199   1.199   1.199   1.199   1.199   1.199   1.199   1.199   1.199   1.199   1.199   1.199   1.199   1.199   1.199   1.199   1.199   1.199   1.199   1.199   1.199   1.199   1.199   1.199   1.199   1.199   1.199   1.199   1.199
    31.03    1.199   1.199   1.199   1.199   1.199   1.199   1.199   1.199   1.199   1.199   1.199   1.199   1.199   1.199   1.199   1.199   1.199   1.199   1.199   1.199   1.199   1.199   1.199   1.199   1.199   1.199   1.199   1.199   1.199   1.199   1.199   1.199   1.199   1.199   1.199   1.199   1.199   1.199   1.199   1.199   1.199   1.199   1.199   1.199   1.199   1.199   1.199   1.199   1.199   1.199   1.199   1.199   1.199   1.199   1.199   1.199   1.199   1.199   1.199   1.199   1.199   1.199   1.199   1.199   1.199   1.199   1.199   1.199   1.199   1.199   1.199   1.199   1.199   1.199   1.199   1.199   1.199   1.199   1.199   1.199   1.199   1.199   1.199   1.199   1.199   1.199   1.199   1.199   1.199   1.199   1.199   1.199   1.199   1.199   1.199   1.199   1.199   1.199   1.199   1.199   1.199   1.199   1.199   1.199   1.199   1.199   1.199   1.199   1.199   1.199   1.199   1.199   1.199
    20.69    1.199   1.199   1.199   1.199   1.199   1.199   1.199   1.199   1.199   1.199   1.199   1.199   1.199   1.199   1.199   1.199   1.199   1.199   1.199   1.199   1.199   1.199   1.199   1.199   1.199   1.199   1.199   1.199   1.199   1.199   1.199   1.199   1.199   1.199   1.199   1.199   1.199   1.199   1.199   1.199   1.199   1.199   1.199   1.199   1.199   1.199   1.199   1.199   1.199   1.199   1.199   1.199   1.199   1.199   1.199   1.199   1.199   1.199   1.199   1.199   1.199   1.199   1.199   1.199   1.199   1.199   1.199   1.199   1.199   1.199   1.199   1.199   1.199   1.199   1.199   1.199   1.199   1.199   1.199   1.199   1.199   1.199   1.199   1.199   1.199   1.199   1.199   1.199   1.199   1.199   1.199   1.199   1.199   1.199   1.199   1.199   1.199   1.199   1.199   1.199   1.199   1.199   1.199   1.199   1.199   1.199   1.199   1.199   1.199   1.199   1.199   1.199   1.199
    10.34    1.199   1.199   1.199   1.199   1.199   1.199   1.199   1.199   1.199   1.199   1.199   1.199   1.199   1.199   1.199   1.199   1.199   1.199   1.199   1.199   1.199   1.199   1.199   1.199   1.199   1.199   1.199   1.199   1.199   1.199   1.199   1.199   1.199   1.199   1.199   1.199   1.199   1.199   1.199   1.199   1.199   1.199   1.199   1.199   1.199   1.199   1.199   1.199   1.199   1.199   1.199   1.199   1.199   1.199   1.199   1.199   1.199   1.199   1.199   1.199   1.199   1.199   1.199   1.199   1.199   1.199   1.199   1.199   1.199   1.199   1.199   1.199   1.199   1.199   1.199   1.199   1.199   1.199   1.199   1.199   1.199   1.199   1.199   1.199   1.199   1.199   1.199   1.199   1.199   1.199   1.199   1.199   1.199   1.199   1.199   1.199   1.199   1.199   1.199   1.199   1.199   1.199   1.199   1.199   1.199   1.199   1.199   1.199   1.199   1.199   1.199   1.199   1.199
     0.00    1.199   1.199   1.199   1.199   1.199   1.199   1.199   1.199   1.199   1.199   1.199   1.199   1.199   1.199   1.199   1.199   1.199   1.199   1.199   1.199   1.199   1.199   1.199   1.199   1.199   1.199   1.199   1.199   1.199   1.199   1.199   1.199   1.199   1.199   1.199   1.199   1.199   1.199   1.199   1.199   1.199   1.199   1.199   1.199   1.199   1.199   1.199   1.199   1.199   1.199   1.199   1.199   1.199   1.199   1.199   1.199   1.199   1.199   1.199   1.199   1.199   1.199   1.199   1.199   1.199   1.199   1.199   1.199   1.199   1.199   1.199   1.199   1.199   1.199   1.199   1.199   1.199   1.199   1.199   1.199   1.199   1.199   1.199   1.199   1.199   1.199   1.199   1.199   1.199   1.199   1.199   1.199   1.199   1.199   1.199   1.199   1.199   1.199   1.199   1.199   1.199   1.199   1.199   1.199   1.199   1.199   1.199   1.199   1.199   1.199   1.199   1.199   1.199

   Height   Standard deviation at grid points for the w component:
   300.00    0.781   0.781   0.781   0.781   0.781   0.781   0.781   0.781   0.781   0.781   0.781   0.781   0.781   0.781   0.781   0.781   0.781   0.781   0.781   0.781   0.781   0.781   0.781   0.781   0.781   0.781   0.781   0.781   0.781   0.781   0.781   0.781   0.781   0.781   0.781   0.781   0.781   0.781   0.781   0.781   0.781   0.781   0.781   0.781   0.781   0.781   0.781   0.781   0.781   0.781   0.781   0.781   0.781   0.781   0.781   0.781   0.781   0.781   0.781   0.781   0.781   0.781   0.781   0.781   0.781   0.781   0.781   0.781   0.781   0.781   0.781   0.781   0.781   0.781   0.781   0.781   0.781   0.781   0.781   0.781   0.781   0.781   0.781   0.781   0.781   0.781   0.781   0.781   0.781   0.781   0.781   0.781   0.781   0.781   0.781   0.781   0.781   0.781   0.781   0.781   0.781   0.781   0.781   0.781   0.781   0.781   0.781   0.781   0.781   0.781   0.781   0.781   0.781
   289.66    0.781   0.781   0.781   0.781   0.781   0.781   0.781   0.781   0.781   0.781   0.781   0.781   0.781   0.781   0.781   0.781   0.781   0.781   0.781   0.781   0.781   0.781   0.781   0.781   0.781   0.781   0.781   0.781   0.781   0.781   0.781   0.781   0.781   0.781   0.781   0.781   0.781   0.781   0.781   0.781   0.781   0.781   0.781   0.781   0.781   0.781   0.781   0.781   0.781   0.781   0.781   0.781   0.781   0.781   0.781   0.781   0.781   0.781   0.781   0.781   0.781   0.781   0.781   0.781   0.781   0.781   0.781   0.781   0.781   0.781   0.781   0.781   0.781   0.781   0.781   0.781   0.781   0.781   0.781   0.781   0.781   0.781   0.781   0.781   0.781   0.781   0.781   0.781   0.781   0.781   0.781   0.781   0.781   0.781   0.781   0.781   0.781   0.781   0.781   0.781   0.781   0.781   0.781   0.781   0.781   0.781   0.781   0.781   0.781   0.781   0.781   0.781   0.781
   279.31    0.781   0.781   0.781   0.781   0.781   0.781   0.781   0.781   0.781   0.781   0.781   0.781   0.781   0.781   0.781   0.781   0.781   0.781   0.781   0.781   0.781   0.781   0.781   0.781   0.781   0.781   0.781   0.781   0.781   0.781   0.781   0.781   0.781   0.781   0.781   0.781   0.781   0.781   0.781   0.781   0.781   0.781   0.781   0.781   0.781   0.781   0.781   0.781   0.781   0.781   0.781   0.781   0.781   0.781   0.781   0.781   0.781   0.781   0.781   0.781   0.781   0.781   0.781   0.781   0.781   0.781   0.781   0.781   0.781   0.781   0.781   0.781   0.781   0.781   0.781   0.781   0.781   0.781   0.781   0.781   0.781   0.781   0.781   0.781   0.781   0.781   0.781   0.781   0.781   0.781   0.781   0.781   0.781   0.781   0.781   0.781   0.781   0.781   0.781   0.781   0.781   0.781   0.781   0.781   0.781   0.781   0.781   0.781   0.781   0.781   0.781   0.781   0.781
   268.97    0.781   0.781   0.781   0.781   0.781   0.781   0.781   0.781   0.781   0.781   0.781   0.781   0.781   0.781   0.781   0.781   0.781   0.781   0.781   0.781   0.781   0.781   0.781   0.781   0.781   0.781   0.781   0.781   0.781   0.781   0.781   0.781   0.781   0.781   0.781   0.781   0.781   0.781   0.781   0.781   0.781   0.781   0.781   0.781   0.781   0.781   0.781   0.781   0.781   0.781   0.781   0.781   0.781   0.781   0.781   0.781   0.781   0.781   0.781   0.781   0.781   0.781   0.781   0.781   0.781   0.781   0.781   0.781   0.781   0.781   0.781   0.781   0.781   0.781   0.781   0.781   0.781   0.781   0.781   0.781   0.781   0.781   0.781   0.781   0.781   0.781   0.781   0.781   0.781   0.781   0.781   0.781   0.781   0.781   0.781   0.781   0.781   0.781   0.781   0.781   0.781   0.781   0.781   0.781   0.781   0.781   0.781   0.781   0.781   0.781   0.781   0.781   0.781
   258.62    0.781   0.781   0.781   0.781   0.781   0.781   0.781   0.781   0.781   0.781   0.781   0.781   0.781   0.781   0.781   0.781   0.781   0.781   0.781   0.781   0.781   0.781   0.781   0.781   0.781   0.781   0.781   0.781   0.781   0.781   0.781   0.781   0.781   0.781   0.781   0.781   0.781   0.781   0.781   0.781   0.781   0.781   0.781   0.781   0.781   0.781   0.781   0.781   0.781   0.781   0.781   0.781   0.781   0.781   0.781   0.781   0.781   0.781   0.781   0.781   0.781   0.781   0.781   0.781   0.781   0.781   0.781   0.781   0.781   0.781   0.781   0.781   0.781   0.781   0.781   0.781   0.781   0.781   0.781   0.781   0.781   0.781   0.781   0.781   0.781   0.781   0.781   0.781   0.781   0.781   0.781   0.781   0.781   0.781   0.781   0.781   0.781   0.781   0.781   0.781   0.781   0.781   0.781   0.781   0.781   0.781   0.781   0.781   0.781   0.781   0.781   0.781   0.781
   248.28    0.781   0.781   0.781   0.781   0.781   0.781   0.781   0.781   0.781   0.781   0.781   0.781   0.781   0.781   0.781   0.781   0.781   0.781   0.781   0.781   0.781   0.781   0.781   0.781   0.781   0.781   0.781   0.781   0.781   0.781   0.781   0.781   0.781   0.781   0.781   0.781   0.781   0.781   0.781   0.781   0.781   0.781   0.781   0.781   0.781   0.781   0.781   0.781   0.781   0.781   0.781   0.781   0.781   0.781   0.781   0.781   0.781   0.781   0.781   0.781   0.781   0.781   0.781   0.781   0.781   0.781   0.781   0.781   0.781   0.781   0.781   0.781   0.781   0.781   0.781   0.781   0.781   0.781   0.781   0.781   0.781   0.781   0.781   0.781   0.781   0.781   0.781   0.781   0.781   0.781   0.781   0.781   0.781   0.781   0.781   0.781   0.781   0.781   0.781   0.781   0.781   0.781   0.781   0.781   0.781   0.781   0.781   0.781   0.781   0.781   0.781   0.781   0.781
   237.93    0.781   0.781   0.781   0.781   0.781   0.781   0.781   0.781   0.781   0.781   0.781   0.781   0.781   0.781   0.781   0.781   0.781   0.781   0.781   0.781   0.781   0.781   0.781   0.781   0.781   0.781   0.781   0.781   0.781   0.781   0.781   0.781   0.781   0.781   0.781   0.781   0.781   0.781   0.781   0.781   0.781   0.781   0.781   0.781   0.781   0.781   0.781   0.781   0.781   0.781   0.781   0.781   0.781   0.781   0.781   0.781   0.781   0.781   0.781   0.781   0.781   0.781   0.781   0.781   0.781   0.781   0.781   0.781   0.781   0.781   0.781   0.781   0.781   0.781   0.781   0.781   0.781   0.781   0.781   0.781   0.781   0.781   0.781   0.781   0.781   0.781   0.781   0.781   0.781   0.781   0.781   0.781   0.781   0.781   0.781   0.781   0.781   0.781   0.781   0.781   0.781   0.781   0.781   0.781   0.781   0.781   0.781   0.781   0.781   0.781   0.781   0.781   0.781
   227.59    0.781   0.781   0.781   0.781   0.781   0.781   0.781   0.781   0.781   0.781   0.781   0.781   0.781   0.781   0.781   0.781   0.781   0.781   0.781   0.781   0.781   0.781   0.781   0.781   0.781   0.781   0.781   0.781   0.781   0.781   0.781   0.781   0.781   0.781   0.781   0.781   0.781   0.781   0.781   0.781   0.781   0.781   0.781   0.781   0.781   0.781   0.781   0.781   0.781   0.781   0.781   0.781   0.781   0.781   0.781   0.781   0.781   0.781   0.781   0.781   0.781   0.781   0.781   0.781   0.781   0.781   0.781   0.781   0.781   0.781   0.781   0.781   0.781   0.781   0.781   0.781   0.781   0.781   0.781   0.781   0.781   0.781   0.781   0.781   0.781   0.781   0.781   0.781   0.781   0.781   0.781   0.781   0.781   0.781   0.781   0.781   0.781   0.781   0.781   0.781   0.781   0.781   0.781   0.781   0.781   0.781   0.781   0.781   0.781   0.781   0.781   0.781   0.781
   217.24    0.781   0.781   0.781   0.781   0.781   0.781   0.781   0.781   0.781   0.781   0.781   0.781   0.781   0.781   0.781   0.781   0.781   0.781   0.781   0.781   0.781   0.781   0.781   0.781   0.781   0.781   0.781   0.781   0.781   0.781   0.781   0.781   0.781   0.781   0.781   0.781   0.781   0.781   0.781   0.781   0.781   0.781   0.781   0.781   0.781   0.781   0.781   0.781   0.781   0.781   0.781   0.781   0.781   0.781   0.781   0.781   0.781   0.781   0.781   0.781   0.781   0.781   0.781   0.781   0.781   0.781   0.781   0.781   0.781   0.781   0.781   0.781   0.781   0.781   0.781   0.781   0.781   0.781   0.781   0.781   0.781   0.781   0.781   0.781   0.781   0.781   0.781   0.781   0.781   0.781   0.781   0.781   0.781   0.781   0.781   0.781   0.781   0.781   0.781   0.781   0.781   0.781   0.781   0.781   0.781   0.781   0.781   0.781   0.781   0.781   0.781   0.781   0.781
   206.90    0.781   0.781   0.781   0.781   0.781   0.781   0.781   0.781   0.781   0.781   0.781   0.781   0.781   0.781   0.781   0.781   0.781   0.781   0.781   0.781   0.781   0.781   0.781   0.781   0.781   0.781   0.781   0.781   0.781   0.781   0.781   0.781   0.781   0.781   0.781   0.781   0.781   0.781   0.781   0.781   0.781   0.781   0.781   0.781   0.781   0.781   0.781   0.781   0.781   0.781   0.781   0.781   0.781   0.781   0.781   0.781   0.781   0.781   0.781   0.781   0.781   0.781   0.781   0.781   0.781   0.781   0.781   0.781   0.781   0.781   0.781   0.781   0.781   0.781   0.781   0.781   0.781   0.781   0.781   0.781   0.781   0.781   0.781   0.781   0.781   0.781   0.781   0.781   0.781   0.781   0.781   0.781   0.781   0.781   0.781   0.781   0.781   0.781   0.781   0.781   0.781   0.781   0.781   0.781   0.781   0.781   0.781   0.781   0.781   0.781   0.781   0.781   0.781
   196.55    0.781   0.781   0.781   0.781   0.781   0.781   0.781   0.781   0.781   0.781   0.781   0.781   0.781   0.781   0.781   0.781   0.781   0.781   0.781   0.781   0.781   0.781   0.781   0.781   0.781   0.781   0.781   0.781   0.781   0.781   0.781   0.781   0.781   0.781   0.781   0.781   0.781   0.781   0.781   0.781   0.781   0.781   0.781   0.781   0.781   0.781   0.781   0.781   0.781   0.781   0.781   0.781   0.781   0.781   0.781   0.781   0.781   0.781   0.781   0.781   0.781   0.781   0.781   0.781   0.781   0.781   0.781   0.781   0.781   0.781   0.781   0.781   0.781   0.781   0.781   0.781   0.781   0.781   0.781   0.781   0.781   0.781   0.781   0.781   0.781   0.781   0.781   0.781   0.781   0.781   0.781   0.781   0.781   0.781   0.781   0.781   0.781   0.781   0.781   0.781   0.781   0.781   0.781   0.781   0.781   0.781   0.781   0.781   0.781   0.781   0.781   0.781   0.781
   186.21    0.781   0.781   0.781   0.781   0.781   0.781   0.781   0.781   0.781   0.781   0.781   0.781   0.781   0.781   0.781   0.781   0.781   0.781   0.781   0.781   0.781   0.781   0.781   0.781   0.781   0.781   0.781   0.781   0.781   0.781   0.781   0.781   0.781   0.781   0.781   0.781   0.781   0.781   0.781   0.781   0.781   0.781   0.781   0.781   0.781   0.781   0.781   0.781   0.781   0.781   0.781   0.781   0.781   0.781   0.781   0.781   0.781   0.781   0.781   0.781   0.781   0.781   0.781   0.781   0.781   0.781   0.781   0.781   0.781   0.781   0.781   0.781   0.781   0.781   0.781   0.781   0.781   0.781   0.781   0.781   0.781   0.781   0.781   0.781   0.781   0.781   0.781   0.781   0.781   0.781   0.781   0.781   0.781   0.781   0.781   0.781   0.781   0.781   0.781   0.781   0.781   0.781   0.781   0.781   0.781   0.781   0.781   0.781   0.781   0.781   0.781   0.781   0.781
   175.86    0.781   0.781   0.781   0.781   0.781   0.781   0.781   0.781   0.781   0.781   0.781   0.781   0.781   0.781   0.781   0.781   0.781   0.781   0.781   0.781   0.781   0.781   0.781   0.781   0.781   0.781   0.781   0.781   0.781   0.781   0.781   0.781   0.781   0.781   0.781   0.781   0.781   0.781   0.781   0.781   0.781   0.781   0.781   0.781   0.781   0.781   0.781   0.781   0.781   0.781   0.781   0.781   0.781   0.781   0.781   0.781   0.781   0.781   0.781   0.781   0.781   0.781   0.781   0.781   0.781   0.781   0.781   0.781   0.781   0.781   0.781   0.781   0.781   0.781   0.781   0.781   0.781   0.781   0.781   0.781   0.781   0.781   0.781   0.781   0.781   0.781   0.781   0.781   0.781   0.781   0.781   0.781   0.781   0.781   0.781   0.781   0.781   0.781   0.781   0.781   0.781   0.781   0.781   0.781   0.781   0.781   0.781   0.781   0.781   0.781   0.781   0.781   0.781
   165.52    0.781   0.781   0.781   0.781   0.781   0.781   0.781   0.781   0.781   0.781   0.781   0.781   0.781   0.781   0.781   0.781   0.781   0.781   0.781   0.781   0.781   0.781   0.781   0.781   0.781   0.781   0.781   0.781   0.781   0.781   0.781   0.781   0.781   0.781   0.781   0.781   0.781   0.781   0.781   0.781   0.781   0.781   0.781   0.781   0.781   0.781   0.781   0.781   0.781   0.781   0.781   0.781   0.781   0.781   0.781   0.781   0.781   0.781   0.781   0.781   0.781   0.781   0.781   0.781   0.781   0.781   0.781   0.781   0.781   0.781   0.781   0.781   0.781   0.781   0.781   0.781   0.781   0.781   0.781   0.781   0.781   0.781   0.781   0.781   0.781   0.781   0.781   0.781   0.781   0.781   0.781   0.781   0.781   0.781   0.781   0.781   0.781   0.781   0.781   0.781   0.781   0.781   0.781   0.781   0.781   0.781   0.781   0.781   0.781   0.781   0.781   0.781   0.781
   155.17    0.781   0.781   0.781   0.781   0.781   0.781   0.781   0.781   0.781   0.781   0.781   0.781   0.781   0.781   0.781   0.781   0.781   0.781   0.781   0.781   0.781   0.781   0.781   0.781   0.781   0.781   0.781   0.781   0.781   0.781   0.781   0.781   0.781   0.781   0.781   0.781   0.781   0.781   0.781   0.781   0.781   0.781   0.781   0.781   0.781   0.781   0.781   0.781   0.781   0.781   0.781   0.781   0.781   0.781   0.781   0.781   0.781   0.781   0.781   0.781   0.781   0.781   0.781   0.781   0.781   0.781   0.781   0.781   0.781   0.781   0.781   0.781   0.781   0.781   0.781   0.781   0.781   0.781   0.781   0.781   0.781   0.781   0.781   0.781   0.781   0.781   0.781   0.781   0.781   0.781   0.781   0.781   0.781   0.781   0.781   0.781   0.781   0.781   0.781   0.781   0.781   0.781   0.781   0.781   0.781   0.781   0.781   0.781   0.781   0.781   0.781   0.781   0.781
   144.83    0.781   0.781   0.781   0.781   0.781   0.781   0.781   0.781   0.781   0.781   0.781   0.781   0.781   0.781   0.781   0.781   0.781   0.781   0.781   0.781   0.781   0.781   0.781   0.781   0.781   0.781   0.781   0.781   0.781   0.781   0.781   0.781   0.781   0.781   0.781   0.781   0.781   0.781   0.781   0.781   0.781   0.781   0.781   0.781   0.781   0.781   0.781   0.781   0.781   0.781   0.781   0.781   0.781   0.781   0.781   0.781   0.781   0.781   0.781   0.781   0.781   0.781   0.781   0.781   0.781   0.781   0.781   0.781   0.781   0.781   0.781   0.781   0.781   0.781   0.781   0.781   0.781   0.781   0.781   0.781   0.781   0.781   0.781   0.781   0.781   0.781   0.781   0.781   0.781   0.781   0.781   0.781   0.781   0.781   0.781   0.781   0.781   0.781   0.781   0.781   0.781   0.781   0.781   0.781   0.781   0.781   0.781   0.781   0.781   0.781   0.781   0.781   0.781
   134.48    0.781   0.781   0.781   0.781   0.781   0.781   0.781   0.781   0.781   0.781   0.781   0.781   0.781   0.781   0.781   0.781   0.781   0.781   0.781   0.781   0.781   0.781   0.781   0.781   0.781   0.781   0.781   0.781   0.781   0.781   0.781   0.781   0.781   0.781   0.781   0.781   0.781   0.781   0.781   0.781   0.781   0.781   0.781   0.781   0.781   0.781   0.781   0.781   0.781   0.781   0.781   0.781   0.781   0.781   0.781   0.781   0.781   0.781   0.781   0.781   0.781   0.781   0.781   0.781   0.781   0.781   0.781   0.781   0.781   0.781   0.781   0.781   0.781   0.781   0.781   0.781   0.781   0.781   0.781   0.781   0.781   0.781   0.781   0.781   0.781   0.781   0.781   0.781   0.781   0.781   0.781   0.781   0.781   0.781   0.781   0.781   0.781   0.781   0.781   0.781   0.781   0.781   0.781   0.781   0.781   0.781   0.781   0.781   0.781   0.781   0.781   0.781   0.781
   124.14    0.781   0.781   0.781   0.781   0.781   0.781   0.781   0.781   0.781   0.781   0.781   0.781   0.781   0.781   0.781   0.781   0.781   0.781   0.781   0.781   0.781   0.781   0.781   0.781   0.781   0.781   0.781   0.781   0.781   0.781   0.781   0.781   0.781   0.781   0.781   0.781   0.781   0.781   0.781   0.781   0.781   0.781   0.781   0.781   0.781   0.781   0.781   0.781   0.781   0.781   0.781   0.781   0.781   0.781   0.781   0.781   0.781   0.781   0.781   0.781   0.781   0.781   0.781   0.781   0.781   0.781   0.781   0.781   0.781   0.781   0.781   0.781   0.781   0.781   0.781   0.781   0.781   0.781   0.781   0.781   0.781   0.781   0.781   0.781   0.781   0.781   0.781   0.781   0.781   0.781   0.781   0.781   0.781   0.781   0.781   0.781   0.781   0.781   0.781   0.781   0.781   0.781   0.781   0.781   0.781   0.781   0.781   0.781   0.781   0.781   0.781   0.781   0.781
   113.79    0.781   0.781   0.781   0.781   0.781   0.781   0.781   0.781   0.781   0.781   0.781   0.781   0.781   0.781   0.781   0.781   0.781   0.781   0.781   0.781   0.781   0.781   0.781   0.781   0.781   0.781   0.781   0.781   0.781   0.781   0.781   0.781   0.781   0.781   0.781   0.781   0.781   0.781   0.781   0.781   0.781   0.781   0.781   0.781   0.781   0.781   0.781   0.781   0.781   0.781   0.781   0.781   0.781   0.781   0.781   0.781   0.781   0.781   0.781   0.781   0.781   0.781   0.781   0.781   0.781   0.781   0.781   0.781   0.781   0.781   0.781   0.781   0.781   0.781   0.781   0.781   0.781   0.781   0.781   0.781   0.781   0.781   0.781   0.781   0.781   0.781   0.781   0.781   0.781   0.781   0.781   0.781   0.781   0.781   0.781   0.781   0.781   0.781   0.781   0.781   0.781   0.781   0.781   0.781   0.781   0.781   0.781   0.781   0.781   0.781   0.781   0.781   0.781
   103.45    0.781   0.781   0.781   0.781   0.781   0.781   0.781   0.781   0.781   0.781   0.781   0.781   0.781   0.781   0.781   0.781   0.781   0.781   0.781   0.781   0.781   0.781   0.781   0.781   0.781   0.781   0.781   0.781   0.781   0.781   0.781   0.781   0.781   0.781   0.781   0.781   0.781   0.781   0.781   0.781   0.781   0.781   0.781   0.781   0.781   0.781   0.781   0.781   0.781   0.781   0.781   0.781   0.781   0.781   0.781   0.781   0.781   0.781   0.781   0.781   0.781   0.781   0.781   0.781   0.781   0.781   0.781   0.781   0.781   0.781   0.781   0.781   0.781   0.781   0.781   0.781   0.781   0.781   0.781   0.781   0.781   0.781   0.781   0.781   0.781   0.781   0.781   0.781   0.781   0.781   0.781   0.781   0.781   0.781   0.781   0.781   0.781   0.781   0.781   0.781   0.781   0.781   0.781   0.781   0.781   0.781   0.781   0.781   0.781   0.781   0.781   0.781   0.781
    93.10    0.781   0.781   0.781   0.781   0.781   0.781   0.781   0.781   0.781   0.781   0.781   0.781   0.781   0.781   0.781   0.781   0.781   0.781   0.781   0.781   0.781   0.781   0.781   0.781   0.781   0.781   0.781   0.781   0.781   0.781   0.781   0.781   0.781   0.781   0.781   0.781   0.781   0.781   0.781   0.781   0.781   0.781   0.781   0.781   0.781   0.781   0.781   0.781   0.781   0.781   0.781   0.781   0.781   0.781   0.781   0.781   0.781   0.781   0.781   0.781   0.781   0.781   0.781   0.781   0.781   0.781   0.781   0.781   0.781   0.781   0.781   0.781   0.781   0.781   0.781   0.781   0.781   0.781   0.781   0.781   0.781   0.781   0.781   0.781   0.781   0.781   0.781   0.781   0.781   0.781   0.781   0.781   0.781   0.781   0.781   0.781   0.781   0.781   0.781   0.781   0.781   0.781   0.781   0.781   0.781   0.781   0.781   0.781   0.781   0.781   0.781   0.781   0.781
    82.76    0.781   0.781   0.781   0.781   0.781   0.781   0.781   0.781   0.781   0.781   0.781   0.781   0.781   0.781   0.781   0.781   0.781   0.781   0.781   0.781   0.781   0.781   0.781   0.781   0.781   0.781   0.781   0.781   0.781   0.781   0.781   0.781   0.781   0.781   0.781   0.781   0.781   0.781   0.781   0.781   0.781   0.781   0.781   0.781   0.781   0.781   0.781   0.781   0.781   0.781   0.781   0.781   0.781   0.781   0.781   0.781   0.781   0.781   0.781   0.781   0.781   0.781   0.781   0.781   0.781   0.781   0.781   0.781   0.781   0.781   0.781   0.781   0.781   0.781   0.781   0.781   0.781   0.781   0.781   0.781   0.781   0.781   0.781   0.781   0.781   0.781   0.781   0.781   0.781   0.781   0.781   0.781   0.781   0.781   0.781   0.781   0.781   0.781   0.781   0.781   0.781   0.781   0.781   0.781   0.781   0.781   0.781   0.781   0.781   0.781   0.781   0.781   0.781
    72.41    0.781   0.781   0.781   0.781   0.781   0.781   0.781   0.781   0.781   0.781   0.781   0.781   0.781   0.781   0.781   0.781   0.781   0.781   0.781   0.781   0.781   0.781   0.781   0.781   0.781   0.781   0.781   0.781   0.781   0.781   0.781   0.781   0.781   0.781   0.781   0.781   0.781   0.781   0.781   0.781   0.781   0.781   0.781   0.781   0.781   0.781   0.781   0.781   0.781   0.781   0.781   0.781   0.781   0.781   0.781   0.781   0.781   0.781   0.781   0.781   0.781   0.781   0.781   0.781   0.781   0.781   0.781   0.781   0.781   0.781   0.781   0.781   0.781   0.781   0.781   0.781   0.781   0.781   0.781   0.781   0.781   0.781   0.781   0.781   0.781   0.781   0.781   0.781   0.781   0.781   0.781   0.781   0.781   0.781   0.781   0.781   0.781   0.781   0.781   0.781   0.781   0.781   0.781   0.781   0.781   0.781   0.781   0.781   0.781   0.781   0.781   0.781   0.781
    62.07    0.781   0.781   0.781   0.781   0.781   0.781   0.781   0.781   0.781   0.781   0.781   0.781   0.781   0.781   0.781   0.781   0.781   0.781   0.781   0.781   0.781   0.781   0.781   0.781   0.781   0.781   0.781   0.781   0.781   0.781   0.781   0.781   0.781   0.781   0.781   0.781   0.781   0.781   0.781   0.781   0.781   0.781   0.781   0.781   0.781   0.781   0.781   0.781   0.781   0.781   0.781   0.781   0.781   0.781   0.781   0.781   0.781   0.781   0.781   0.781   0.781   0.781   0.781   0.781   0.781   0.781   0.781   0.781   0.781   0.781   0.781   0.781   0.781   0.781   0.781   0.781   0.781   0.781   0.781   0.781   0.781   0.781   0.781   0.781   0.781   0.781   0.781   0.781   0.781   0.781   0.781   0.781   0.781   0.781   0.781   0.781   0.781   0.781   0.781   0.781   0.781   0.781   0.781   0.781   0.781   0.781   0.781   0.781   0.781   0.781   0.781   0.781   0.781
    51.72    0.781   0.781   0.781   0.781   0.781   0.781   0.781   0.781   0.781   0.781   0.781   0.781   0.781   0.781   0.781   0.781   0.781   0.781   0.781   0.781   0.781   0.781   0.781   0.781   0.781   0.781   0.781   0.781   0.781   0.781   0.781   0.781   0.781   0.781   0.781   0.781   0.781   0.781   0.781   0.781   0.781   0.781   0.781   0.781   0.781   0.781   0.781   0.781   0.781   0.781   0.781   0.781   0.781   0.781   0.781   0.781   0.781   0.781   0.781   0.781   0.781   0.781   0.781   0.781   0.781   0.781   0.781   0.781   0.781   0.781   0.781   0.781   0.781   0.781   0.781   0.781   0.781   0.781   0.781   0.781   0.781   0.781   0.781   0.781   0.781   0.781   0.781   0.781   0.781   0.781   0.781   0.781   0.781   0.781   0.781   0.781   0.781   0.781   0.781   0.781   0.781   0.781   0.781   0.781   0.781   0.781   0.781   0.781   0.781   0.781   0.781   0.781   0.781
    41.38    0.781   0.781   0.781   0.781   0.781   0.781   0.781   0.781   0.781   0.781   0.781   0.781   0.781   0.781   0.781   0.781   0.781   0.781   0.781   0.781   0.781   0.781   0.781   0.781   0.781   0.781   0.781   0.781   0.781   0.781   0.781   0.781   0.781   0.781   0.781   0.781   0.781   0.781   0.781   0.781   0.781   0.781   0.781   0.781   0.781   0.781   0.781   0.781   0.781   0.781   0.781   0.781   0.781   0.781   0.781   0.781   0.781   0.781   0.781   0.781   0.781   0.781   0.781   0.781   0.781   0.781   0.781   0.781   0.781   0.781   0.781   0.781   0.781   0.781   0.781   0.781   0.781   0.781   0.781   0.781   0.781   0.781   0.781   0.781   0.781   0.781   0.781   0.781   0.781   0.781   0.781   0.781   0.781   0.781   0.781   0.781   0.781   0.781   0.781   0.781   0.781   0.781   0.781   0.781   0.781   0.781   0.781   0.781   0.781   0.781   0.781   0.781   0.781
    31.03    0.781   0.781   0.781   0.781   0.781   0.781   0.781   0.781   0.781   0.781   0.781   0.781   0.781   0.781   0.781   0.781   0.781   0.781   0.781   0.781   0.781   0.781   0.781   0.781   0.781   0.781   0.781   0.781   0.781   0.781   0.781   0.781   0.781   0.781   0.781   0.781   0.781   0.781   0.781   0.781   0.781   0.781   0.781   0.781   0.781   0.781   0.781   0.781   0.781   0.781   0.781   0.781   0.781   0.781   0.781   0.781   0.781   0.781   0.781   0.781   0.781   0.781   0.781   0.781   0.781   0.781   0.781   0.781   0.781   0.781   0.781   0.781   0.781   0.781   0.781   0.781   0.781   0.781   0.781   0.781   0.781   0.781   0.781   0.781   0.781   0.781   0.781   0.781   0.781   0.781   0.781   0.781   0.781   0.781   0.781   0.781   0.781   0.781   0.781   0.781   0.781   0.781   0.781   0.781   0.781   0.781   0.781   0.781   0.781   0.781   0.781   0.781   0.781
    20.69    0.781   0.781   0.781   0.781   0.781   0.781   0.781   0.781   0.781   0.781   0.781   0.781   0.781   0.781   0.781   0.781   0.781   0.781   0.781   0.781   0.781   0.781   0.781   0.781   0.781   0.781   0.781   0.781   0.781   0.781   0.781   0.781   0.781   0.781   0.781   0.781   0.781   0.781   0.781   0.781   0.781   0.781   0.781   0.781   0.781   0.781   0.781   0.781   0.781   0.781   0.781   0.781   0.781   0.781   0.781   0.781   0.781   0.781   0.781   0.781   0.781   0.781   0.781   0.781   0.781   0.781   0.781   0.781   0.781   0.781   0.781   0.781   0.781   0.781   0.781   0.781   0.781   0.781   0.781   0.781   0.781   0.781   0.781   0.781   0.781   0.781   0.781   0.781   0.781   0.781   0.781   0.781   0.781   0.781   0.781   0.781   0.781   0.781   0.781   0.781   0.781   0.781   0.781   0.781   0.781   0.781   0.781   0.781   0.781   0.781   0.781   0.781   0.781
    10.34    0.781   0.781   0.781   0.781   0.781   0.781   0.781   0.781   0.781   0.781   0.781   0.781   0.781   0.781   0.781   0.781   0.781   0.781   0.781   0.781   0.781   0.781   0.781   0.781   0.781   0.781   0.781   0.781   0.781   0.781   0.781   0.781   0.781   0.781   0.781   0.781   0.781   0.781   0.781   0.781   0.781   0.781   0.781   0.781   0.781   0.781   0.781   0.781   0.781   0.781   0.781   0.781   0.781   0.781   0.781   0.781   0.781   0.781   0.781   0.781   0.781   0.781   0.781   0.781   0.781   0.781   0.781   0.781   0.781   0.781   0.781   0.781   0.781   0.781   0.781   0.781   0.781   0.781   0.781   0.781   0.781   0.781   0.781   0.781   0.781   0.781   0.781   0.781   0.781   0.781   0.781   0.781   0.781   0.781   0.781   0.781   0.781   0.781   0.781   0.781   0.781   0.781   0.781   0.781   0.781   0.781   0.781   0.781   0.781   0.781   0.781   0.781   0.781
     0.00    0.781   0.781   0.781   0.781   0.781   0.781   0.781   0.781   0.781   0.781   0.781   0.781   0.781   0.781   0.781   0.781   0.781   0.781   0.781   0.781   0.781   0.781   0.781   0.781   0.781   0.781   0.781   0.781   0.781   0.781   0.781   0.781   0.781   0.781   0.781   0.781   0.781   0.781   0.781   0.781   0.781   0.781   0.781   0.781   0.781   0.781   0.781   0.781   0.781   0.781   0.781   0.781   0.781   0.781   0.781   0.781   0.781   0.781   0.781   0.781   0.781   0.781   0.781   0.781   0.781   0.781   0.781   0.781   0.781   0.781   0.781   0.781   0.781   0.781   0.781   0.781   0.781   0.781   0.781   0.781   0.781   0.781   0.781   0.781   0.781   0.781   0.781   0.781   0.781   0.781   0.781   0.781   0.781   0.781   0.781   0.781   0.781   0.781   0.781   0.781   0.781   0.781   0.781   0.781   0.781   0.781   0.781   0.781   0.781   0.781   0.781   0.781   0.781

   Mean standard deviation across all grid points:
      u component:    1.232 m/s
      v component:    1.199 m/s
      w component:    0.781 m/s


U-component (X) statistics from the interpolated hub point:

   Mean =   7.6768 m/s
   TI   =  11.5180 %


Processing complete.  6.375 CPU seconds used.
