
This summary file was generated by TurbSim (from OpenFAST-v4.1.2) on 24-Feb-2026 at 12:57:31.


Runtime Options:

-428645521  Random seed #1
    RANLUX  Type of random number generator
         F  Output binary HH turbulence parameters?
         F  Output formatted turbulence parameters?
         F  Output AeroDyn HH files?
         T  Output AeroDyn FF files?
         F  Output BLADED FF files?
         F  Output tower data?
         F  Output HAWC FF files?
         T  Output formatted FF files?
         F  Output coherent turbulence time step file?
 0 -  NONE  IEC turbulence models scaled to exact specified standard deviation


Turbine/Model Specifications:

        30  Vertical grid-point matrix dimension
       160  Horizontal grid-point matrix dimension
     1.000  Time step [seconds]
    90.000  Analysis time [seconds]
    90.000  Usable output time [seconds]
   150.000  Hub height [m]
   300.000  Grid height [m]
  1600.000  Grid width [m]
     0.000  Vertical flow angle [degrees]
     8.000  Horizontal flow angle [degrees]


Meteorological Boundary Conditions:

    IECKAI  IEC Kaimal spectral model
         1  IEC standard: IEC 61400-1 Ed. 3: 2005
         A  IEC turbulence characteristic
       NTM  IEC Normal Turbulence Model
       N/A  IEC Extreme Turbulence Model (ETM) "c" parameter [m/s]
       PL   Wind profile type
    90.000  Reference height [m]
     7.000  Reference wind speed [m/s]
       N/A  Jet height [m]
     0.200  Power law exponent
     0.030  Surface roughness length [m]


Non-IEC Meteorological Boundary Conditions:

       N/A  Site latitude [degrees]
       N/A  Gradient Richardson number
       N/A  Friction or shear velocity [m/s]
       N/A  Mixing layer depth [m]
       N/A  Mean hub u'w' Reynolds stress
       N/A  Mean hub u'v' Reynolds stress
       N/A  Mean hub v'w' Reynolds stress


Spatial Coherence Models:

       IEC  u-component coherence model
      NONE  v-component coherence model
      NONE  w-component coherence model
(   12.000, 0.353E-03)  u-component coherence parameters
                   N/A  v-component coherence parameters
                   N/A  w-component coherence parameters
       N/A  Coherence exponent


You have requested that the following file(s) be generated:

   Generator_Ambient/TurbSim3.bts (AeroDyn/TurbSim full-field wind file)
   Generator_Ambient/TurbSim3.u (formatted full-field U-component file)
   Generator_Ambient/TurbSim3.v (formatted full-field V-component file)
   Generator_Ambient/TurbSim3.w (formatted full-field W-component file)


Turbulence Simulation Scaling Parameter Summary:

   Turbulence model used                            =  IEC Kaimal
   Turbulence characteristic                        =  A
   IEC turbulence type                              =  Normal Turbulence Model
   IEC standard                                     =  IEC 61400-1 Ed. 3: 2005
   Mean wind speed at hub height                    =    7.753 m/s
   Expected value of turbulence intensity at 15 m/s =   16.000%
   Characteristic value of standard deviation       =    1.826 m/s
   Turbulence scale                                 =   42.000 m
   u-component integral scale                       =  340.200 m
   Coherency scale                                  =  340.200 m
   Characteristic value of hub turbulence intensity =   23.557%
   Gradient Richardson number                       =    0.000

   Wind profile type                                =  Power law
   Power law exponent                               =    0.200
   Mean shear across rotor disk                     =    0.030 (m/s)/m
   Assumed rotor diameter                           =  300.000 m
   Surface roughness length                         =    0.030 m

   Nyquist frequency of turbulent wind field        =    0.500 Hz

   Number of time steps in the FFT                  =       90
   Number of time steps output                      =       90
   Number of points simulated                       =     4801


Mean Flow Angles:

   Vertical   =   0.0 degrees
   Horizontal =   8.0 degrees

Mean Wind Speed Profile:

   Height    Wind Speed   Horizontal Angle  Vertical Angle  U-comp (X)   V-comp (Y)   W-comp (Z)
     (m)        (m/s)         (degrees)       (degrees)       (m/s)        (m/s)        (m/s)   
   ------    ----------   ----------------  --------------  ----------   ----------   ----------
    300.0        8.91            8.00            0.00          8.82         1.24         0.00
    289.7        8.84            8.00            0.00          8.76         1.23         0.00
    279.3        8.78            8.00            0.00          8.69         1.22         0.00
    269.0        8.71            8.00            0.00          8.63         1.21         0.00
    258.6        8.65            8.00            0.00          8.56         1.20         0.00
    248.3        8.58            8.00            0.00          8.49         1.19         0.00
    237.9        8.50            8.00            0.00          8.42         1.18         0.00
    227.6        8.43            8.00            0.00          8.35         1.17         0.00
    217.2        8.35            8.00            0.00          8.27         1.16         0.00
    206.9        8.27            8.00            0.00          8.19         1.15         0.00
    196.6        8.18            8.00            0.00          8.10         1.14         0.00
    186.2        8.10            8.00            0.00          8.02         1.13         0.00
    175.9        8.00            8.00            0.00          7.93         1.11         0.00
    165.5        7.91            8.00            0.00          7.83         1.10         0.00
    155.2        7.81            8.00            0.00          7.73         1.09         0.00
    150.0        7.75            8.00            0.00          7.68         1.08         0.00
    144.8        7.70            8.00            0.00          7.62         1.07         0.00
    134.5        7.59            8.00            0.00          7.51         1.06         0.00
    124.1        7.47            8.00            0.00          7.39         1.04         0.00
    113.8        7.34            8.00            0.00          7.26         1.02         0.00
    103.4        7.20            8.00            0.00          7.13         1.00         0.00
     93.1        7.05            8.00            0.00          6.98         0.98         0.00
     82.8        6.88            8.00            0.00          6.82         0.96         0.00
     72.4        6.70            8.00            0.00          6.64         0.93         0.00
     62.1        6.50            8.00            0.00          6.44         0.90         0.00
     51.7        6.27            8.00            0.00          6.20         0.87         0.00
     41.4        5.99            8.00            0.00          5.93         0.83         0.00
     31.0        5.66            8.00            0.00          5.60         0.79         0.00
     20.7        5.22            8.00            0.00          5.17         0.73         0.00
     10.3        4.54            8.00            0.00          4.50         0.63         0.00
      0.0        0.45            8.00            0.00          0.45         0.06         0.00


Harvested Random Seeds after Generation of the Random Numbers:

      6022130 K 1
            0 K 2


Hub-Height Simulated Turbulence Statistical Summary:

   Type of Wind        Min (m/s)   Mean (m/s)    Max (m/s)  Sigma (m/s)       TI (%)
   ----------------    ---------   ----------    ---------  -----------       ------
   Longitudinal (u)         5.12         7.75        10.46        1.267       16.340
   Lateral (v)             -3.16         0.00         2.53        1.199       15.470
   Vertical (w)            -2.10        -0.00         1.27        0.781       10.068
   U component              4.87         7.68        10.80        1.337       17.413
   V component             -1.71         1.08         3.72        1.121       14.599
   W component             -2.10        -0.00         1.27        0.781       10.167
   Horizontal (U&V)         5.23         7.84        10.93        1.301       16.597
   Total                    5.23         7.88        11.00        1.304       16.551

                       Min Reynolds     Mean Reynolds    Max Reynolds    Correlation
   Product             Stress (m/s)^2   Stress (m/s)^2   Stress (m/s)^2  Coefficient
   ----------------    --------------   --------------   --------------  -----------
   u'w'                     -2.020             0.139             3.396         0.141
   u'v'                     -8.566            -0.673             2.367        -0.443
   v'w'                     -3.958            -0.310             2.288        -0.331


   Friction Velocity (Ustar)  =      0.373 m/s
   Maximum Instantaneous TKE  =      9.451 (m/s)^2
   Maximum Instantaneous CTKE =      5.014 (m/s)^2


Grid Point Variance Summary:

   Y-coord -800.00 -789.94 -779.87 -769.81 -759.75 -749.69 -739.62 -729.56 -719.50 -709.43 -699.37 -689.31 -679.25 -669.18 -659.12 -649.06 -638.99 -628.93 -618.87 -608.81 -598.74 -588.68 -578.62 -568.55 -558.49 -548.43 -538.36 -528.30 -518.24 -508.18 -498.11 -488.05 -477.99 -467.92 -457.86 -447.80 -437.74 -427.67 -417.61 -407.55 -397.48 -387.42 -377.36 -367.30 -357.23 -347.17 -337.11 -327.04 -316.98 -306.92 -296.86 -286.79 -276.73 -266.67 -256.60 -246.54 -236.48 -226.42 -216.35 -206.29 -196.23 -186.16 -176.10 -166.04 -155.97 -145.91 -135.85 -125.79 -115.72 -105.66  -95.60  -85.53  -75.47  -65.41  -55.35  -45.28  -35.22  -25.16  -15.09   -5.03    5.03   15.09   25.16   35.22   45.28   55.35   65.41   75.47   85.53   95.60  105.66  115.72  125.79  135.85  145.91  155.97  166.04  176.10  186.16  196.23  206.29  216.35  226.42  236.48  246.54  256.60  266.67  276.73  286.79  296.86  306.92  316.98  327.04  337.11  347.17  357.23  367.30  377.36  387.42  397.48  407.55  417.61  427.67  437.74  447.80  457.86  467.92  477.99  488.05  498.11  508.18  518.24  528.30  538.36  548.43  558.49  568.55  578.62  588.68  598.74  608.81  618.87  628.93  638.99  649.06  659.12  669.18  679.25  689.31  699.37  709.43  719.50  729.56  739.62  749.69  759.75  769.81  779.87  789.94  800.00

   Height   Standard deviation at grid points for the u component:
   300.00    1.030   1.084   1.184   1.280   1.510   1.348   1.264   1.261   1.380   1.198   1.033   1.095   0.791   0.910   1.008   1.018   1.104   1.368   1.420   1.480   1.588   1.221   1.252   0.782   1.065   0.996   1.184   1.032   1.289   1.162   1.432   1.369   1.096   1.232   1.506   1.169   0.999   1.205   1.258   1.240   1.091   1.047   0.993   1.027   1.297   1.392   1.578   1.122   0.963   1.035   1.300   1.214   1.143   1.071   1.307   1.372   1.038   1.245   0.801   1.222   1.303   1.636   1.448   1.443   1.323   1.235   1.080   1.379   1.786   1.880   2.125   1.533   1.821   1.682   1.628   1.588   1.838   1.645   1.800   2.165   1.729   1.776   1.432   1.095   1.017   0.913   1.031   0.915   0.849   0.851   1.061   0.913   1.172   0.932   0.842   1.239   1.061   1.618   1.917   1.833   1.616   1.201   1.312   1.266   1.082   0.946   0.929   1.038   1.029   0.946   1.274   1.406   1.522   1.373   1.412   1.085   1.073   1.029   1.191   1.136   1.227   1.284   0.904   1.230   1.521   1.465   1.024   1.034   1.217   0.798   0.979   0.751   0.819   1.062   1.328   1.265   0.865   1.024   0.982   1.127   1.294   0.939   1.383   1.191   1.403   1.123   1.141   1.528   1.779   1.518   1.317   1.636   1.734   1.407   1.022   1.108   1.029   1.384   1.329   1.423
   289.66    0.797   1.126   1.009   1.266   1.434   1.425   1.601   1.721   1.222   1.068   1.057   0.804   0.914   1.043   1.223   0.854   1.064   0.916   1.205   1.321   1.369   1.153   1.202   0.963   1.105   1.104   1.207   1.337   1.463   1.279   1.431   1.506   1.490   1.342   1.258   1.338   1.132   1.169   1.116   1.104   0.917   1.099   1.048   1.142   1.015   1.263   1.277   0.973   1.124   0.985   1.056   1.102   1.371   1.194   1.155   1.029   0.975   1.187   0.960   1.228   0.901   1.287   1.332   1.196   1.145   1.048   0.991   1.245   1.424   1.680   1.594   1.817   1.634   1.532   1.455   1.591   1.378   1.918   1.751   2.010   2.073   1.361   1.246   0.995   1.012   0.892   0.905   0.946   0.876   1.254   1.244   0.992   1.151   1.143   0.933   1.273   0.938   1.530   1.906   1.566   0.987   1.022   1.124   1.175   1.506   1.830   1.266   1.176   1.143   0.936   0.833   1.129   1.467   1.587   1.459   1.166   1.012   1.086   1.120   1.240   1.155   1.086   1.097   1.413   1.213   1.279   1.279   1.443   1.339   0.957   0.970   1.057   1.114   1.108   1.136   1.108   1.166   0.922   1.093   1.091   1.092   1.081   1.077   1.580   1.336   1.010   1.335   1.583   1.740   1.741   1.724   1.694   1.598   1.385   1.018   0.800   0.871   1.201   0.915   1.188
   279.31    1.110   1.181   1.210   1.459   1.325   1.259   1.189   1.329   1.320   0.937   1.181   0.842   0.770   1.166   0.943   0.892   1.037   1.369   0.940   1.186   1.242   1.416   1.292   1.221   1.085   1.029   0.949   1.050   1.044   0.874   1.107   1.565   1.516   1.389   0.940   1.099   1.107   0.996   0.842   1.039   1.186   1.200   1.053   0.899   0.932   1.060   1.120   1.308   1.463   1.057   0.796   1.081   1.288   1.420   1.206   1.407   1.055   0.871   1.251   1.193   1.427   1.229   1.331   1.155   1.109   1.086   1.242   1.142   1.385   1.469   1.356   1.444   1.446   1.408   1.581   1.625   1.924   2.005   1.587   1.782   1.759   1.452   1.027   1.266   0.983   1.054   0.949   0.891   0.861   1.280   1.531   1.263   1.015   1.016   1.003   1.054   1.051   1.400   1.855   1.766   1.340   1.387   1.296   1.015   1.470   1.735   1.368   1.532   1.117   0.794   0.991   0.946   1.406   1.256   1.281   0.896   0.863   0.963   0.930   1.044   1.323   1.293   1.021   1.083   1.223   1.297   1.304   1.336   1.114   1.316   1.191   1.191   1.066   0.931   0.998   1.292   1.099   1.157   1.411   0.992   0.947   0.907   1.286   1.615   1.250   1.390   1.304   1.222   1.359   1.296   1.307   1.133   1.208   0.936   0.896   1.050   0.959   0.983   1.106   1.373
   268.97    1.370   1.780   1.513   1.408   1.200   1.548   1.801   1.162   1.196   0.913   1.233   1.185   1.065   1.313   1.106   1.133   1.023   1.278   0.968   1.249   1.550   1.420   1.234   0.950   1.125   0.899   0.911   1.077   0.902   1.019   1.057   1.395   1.404   1.525   1.241   0.949   0.867   0.803   1.019   0.989   0.996   1.174   1.223   1.035   1.017   1.260   1.196   1.071   1.191   0.998   0.856   0.890   1.211   1.328   1.212   1.313   1.029   1.097   1.101   1.278   1.535   1.447   1.256   1.523   1.078   1.004   1.014   1.115   1.097   1.171   1.207   1.231   0.946   1.187   1.097   1.329   1.802   1.561   1.975   1.583   1.472   1.337   1.498   1.303   1.087   0.979   1.185   1.340   1.280   1.196   1.233   1.230   1.004   1.068   1.106   1.016   0.887   1.129   1.392   1.495   1.423   1.227   1.349   1.266   1.312   1.455   1.667   1.180   1.226   1.055   1.013   0.981   1.175   1.224   1.232   1.002   0.909   0.819   0.985   0.982   1.171   1.181   1.254   1.236   1.397   1.307   1.137   1.252   1.321   1.339   0.977   1.058   0.874   1.053   1.188   1.398   1.287   1.294   1.375   1.199   0.808   0.870   1.248   1.605   1.601   1.068   1.036   1.193   0.794   0.868   1.357   1.392   1.244   1.021   0.982   0.968   0.908   1.045   0.948   0.996
   258.62    1.945   2.219   1.951   1.654   1.354   1.544   1.508   1.258   1.347   1.122   1.113   0.827   0.998   1.009   1.211   1.209   1.536   1.538   0.947   1.054   1.297   1.482   1.202   1.213   0.944   0.845   1.171   1.058   1.089   0.922   1.176   1.471   1.363   1.391   0.985   1.107   1.132   1.152   1.078   0.817   1.147   1.056   0.808   0.925   1.188   1.222   1.384   1.413   1.189   1.180   1.068   0.983   0.991   1.220   1.240   1.373   1.258   1.175   1.360   1.156   1.483   1.308   1.284   1.157   1.018   1.046   0.975   0.967   0.998   1.274   0.903   0.962   0.947   0.968   1.162   1.283   1.786   2.166   1.939   1.512   1.243   1.132   1.240   1.102   1.203   1.158   1.248   1.197   1.315   1.062   0.841   1.202   1.072   1.018   0.880   0.960   0.956   1.081   1.238   1.480   1.362   1.230   1.369   1.049   1.186   1.592   1.498   1.390   1.480   1.395   1.033   0.852   1.147   1.266   0.955   0.905   1.018   1.092   0.834   0.946   1.171   1.326   1.227   0.994   1.256   1.399   1.358   1.237   0.978   1.103   1.301   1.110   1.163   0.985   1.178   1.409   1.349   1.245   0.997   1.336   1.327   1.371   1.041   1.127   1.399   1.054   1.172   0.927   0.936   1.179   1.209   1.084   1.001   1.137   1.363   0.941   1.112   0.987   0.907   1.099
   248.28    2.056   1.871   2.047   1.518   1.197   1.514   0.993   1.411   1.182   1.556   1.626   1.311   1.345   1.269   1.149   1.244   1.490   1.528   1.155   0.950   1.006   1.178   1.121   1.094   1.095   1.051   0.998   1.091   1.363   1.191   1.111   1.217   1.205   1.044   0.968   1.045   1.242   1.201   1.214   1.379   1.255   0.773   0.786   0.949   1.387   1.434   1.210   1.111   1.317   1.146   1.196   1.073   1.091   1.103   1.077   1.218   1.396   1.308   1.056   1.425   1.763   1.446   1.331   1.322   0.747   1.142   1.219   1.070   1.465   1.150   1.106   0.971   1.021   0.970   1.258   1.456   1.736   2.095   1.906   1.577   1.437   1.089   1.281   0.876   0.961   0.984   1.012   1.191   1.136   1.028   0.944   1.135   1.318   1.222   0.947   1.081   1.118   0.834   1.214   1.203   1.085   1.147   1.338   1.363   1.538   1.590   1.460   1.489   1.570   1.297   1.175   0.925   1.145   1.255   1.106   0.962   1.066   0.789   0.986   0.862   0.960   1.455   1.097   1.071   1.270   1.368   1.513   1.454   0.918   0.861   1.081   0.952   1.188   0.917   0.820   1.167   1.512   1.461   1.557   1.301   0.928   1.230   0.966   1.010   0.926   1.277   0.958   1.040   1.063   1.033   0.979   0.754   0.888   1.124   1.128   0.967   0.819   0.962   1.093   1.239
   237.93    2.016   1.738   1.739   1.689   1.610   1.343   1.337   1.329   1.263   1.240   1.363   1.305   1.181   1.106   1.266   1.080   1.293   1.195   1.412   1.252   1.071   0.816   1.109   1.050   0.918   1.253   1.211   1.376   1.414   1.564   1.284   1.142   1.236   1.001   1.005   1.053   0.945   1.205   1.169   1.218   1.472   0.959   0.941   0.862   0.888   1.216   1.261   1.087   1.221   1.466   1.276   1.281   1.081   0.960   1.060   1.160   1.325   1.181   1.221   1.349   1.477   1.577   1.507   1.301   1.059   1.102   1.300   1.237   1.605   1.369   1.003   0.873   0.920   1.013   1.061   1.180   1.346   1.727   1.781   2.043   1.685   1.171   1.237   0.902   0.934   1.007   0.887   0.914   1.185   0.938   1.288   1.166   1.292   1.110   1.093   0.964   1.049   0.913   1.220   1.172   1.043   1.158   1.154   1.191   1.174   1.311   1.276   1.427   1.198   1.428   0.944   0.797   1.070   1.047   1.203   0.802   1.002   0.892   0.993   0.791   0.809   1.463   1.712   1.199   1.160   1.187   1.147   1.160   1.130   1.338   0.970   1.127   1.158   0.956   0.937   1.143   1.428   1.553   1.573   1.216   1.052   1.184   0.968   1.056   1.139   1.309   1.077   1.090   0.910   0.802   1.021   0.952   0.884   0.927   1.216   1.253   0.971   0.910   0.922   1.038
   227.59    2.010   1.867   2.059   1.727   1.102   1.351   1.117   1.246   1.234   1.103   1.133   1.151   1.012   0.969   0.976   1.074   1.142   0.959   1.201   1.389   1.175   0.834   1.180   1.345   1.318   1.331   1.337   1.352   1.550   1.430   1.358   1.109   1.107   1.178   1.085   0.974   1.031   1.079   1.414   1.118   1.276   1.047   1.227   1.007   1.407   1.135   1.037   0.975   1.148   1.289   1.178   1.144   0.991   1.126   1.026   0.918   1.015   1.073   1.177   1.344   1.362   1.329   1.197   1.219   1.284   1.025   0.989   1.082   1.510   1.492   1.072   1.008   1.011   0.935   1.027   1.099   1.364   1.758   1.584   1.698   1.531   1.437   1.110   0.996   0.856   1.152   1.026   1.066   1.286   1.116   1.228   1.329   1.077   0.954   0.929   0.930   1.010   1.248   1.468   1.414   1.149   1.123   1.048   1.041   0.959   0.978   1.153   1.005   1.318   1.544   1.178   0.860   1.143   1.172   1.127   0.976   0.912   0.870   0.787   0.844   0.999   1.490   2.015   1.543   1.515   1.101   0.841   1.063   1.013   1.198   1.282   0.995   1.285   1.357   1.110   1.095   1.376   1.553   1.250   1.303   1.432   1.353   1.744   1.535   1.217   1.202   0.998   1.137   1.155   1.166   1.219   1.025   1.139   1.314   1.372   1.128   1.142   0.954   1.190   1.421
   217.24    2.445   2.022   2.022   1.979   1.517   1.127   1.376   1.264   1.252   1.550   1.541   1.145   0.986   0.879   1.200   1.147   1.216   1.036   1.086   1.432   1.139   0.828   0.998   1.290   1.252   1.238   1.139   1.316   1.445   1.006   0.892   1.261   1.441   1.234   1.433   1.471   1.113   1.436   1.563   1.266   1.200   0.982   1.285   1.222   1.421   1.229   0.885   0.944   1.092   1.349   1.306   1.143   1.016   0.978   0.933   1.157   1.288   0.906   1.077   0.931   1.112   1.075   1.068   1.036   1.122   1.285   0.808   0.997   1.265   1.045   1.056   1.002   1.080   1.063   0.983   1.235   1.513   1.556   1.443   1.472   1.401   1.402   1.041   1.100   0.899   1.157   0.995   0.995   1.152   0.912   1.056   1.249   0.882   0.986   1.073   1.032   0.957   1.310   1.149   1.276   1.067   0.966   1.206   0.981   0.889   1.017   0.979   0.795   1.006   1.349   1.294   1.353   1.202   1.126   0.857   0.923   0.978   1.007   1.124   1.061   1.337   1.789   1.941   1.843   1.533   1.392   1.028   1.182   0.952   1.111   1.296   1.413   1.123   1.072   1.086   1.498   1.365   1.640   1.225   1.232   1.436   1.470   1.667   1.501   1.516   0.992   1.046   0.999   0.904   1.046   1.034   1.026   1.297   1.172   1.201   0.960   1.143   1.151   1.495   1.290
   206.90    2.252   2.301   1.951   2.085   2.041   1.368   1.202   1.459   1.282   1.411   1.408   1.173   1.064   1.275   1.400   0.915   1.140   1.150   1.225   1.146   1.043   0.917   0.816   1.006   1.187   1.500   1.375   1.583   1.501   1.394   1.186   1.398   1.509   1.383   1.080   1.130   1.412   1.233   1.117   1.203   1.103   1.074   1.243   1.347   1.166   1.041   0.805   1.078   1.268   1.277   1.158   0.935   0.832   0.861   1.237   1.329   0.920   0.897   1.153   1.150   0.829   1.027   0.941   1.054   1.284   1.259   1.144   0.890   1.077   0.922   0.991   0.902   1.026   1.260   1.187   1.177   1.621   1.258   1.513   1.436   1.466   1.274   1.152   1.214   1.002   0.962   0.952   1.135   0.999   0.937   1.107   1.073   0.967   1.179   0.948   1.102   1.258   1.343   1.392   1.402   1.099   1.210   1.440   1.348   0.978   1.004   1.006   0.960   1.081   1.139   1.380   1.522   1.463   1.180   0.973   1.076   1.072   1.397   1.359   1.202   1.355   1.727   2.067   1.804   1.139   1.293   0.910   0.992   0.990   1.002   1.198   1.330   1.368   1.122   0.835   1.377   1.767   1.703   1.424   1.380   1.453   1.779   1.874   1.330   1.315   0.801   1.032   0.909   1.006   1.151   1.121   0.809   0.894   1.167   0.874   1.023   0.944   0.958   1.223   1.186
   196.55    2.044   2.205   2.252   2.001   1.803   1.651   1.195   1.157   1.456   1.131   1.453   1.690   1.150   1.226   1.151   1.271   1.307   1.115   1.060   0.947   1.001   0.853   1.013   0.869   1.097   1.336   1.699   1.926   1.500   1.590   1.357   1.016   1.128   0.841   1.140   1.076   1.320   1.421   1.273   1.002   1.070   0.943   1.254   1.308   1.100   0.767   0.841   1.175   1.201   1.076   1.120   1.276   1.122   0.955   1.259   1.585   1.165   0.966   1.196   1.064   0.886   1.041   0.825   0.975   1.108   1.259   1.078   0.848   1.162   0.871   1.075   1.050   0.936   1.207   1.647   1.916   1.674   1.558   1.713   1.471   1.193   1.153   0.920   1.210   1.051   0.901   1.257   1.273   1.469   0.892   0.922   0.980   1.242   1.098   1.329   1.131   0.962   0.998   1.255   0.792   1.235   0.892   1.382   1.160   1.363   1.001   1.224   0.932   0.977   1.208   1.252   1.209   1.111   1.039   1.244   1.175   1.238   1.288   1.237   0.998   1.574   1.835   1.927   1.673   1.424   1.136   1.242   1.017   1.023   1.289   1.410   1.070   0.827   0.852   0.962   1.365   1.357   1.312   1.268   1.024   1.026   1.313   1.552   1.438   0.898   0.788   0.975   1.164   0.772   1.322   1.291   1.164   0.914   1.061   1.035   0.904   1.065   0.900   1.090   1.270
   186.21    1.692   1.907   1.973   1.580   1.072   1.197   1.404   1.623   1.512   1.307   1.594   1.714   1.091   1.281   0.882   1.138   1.016   1.181   1.385   1.124   0.930   1.151   0.949   1.157   1.295   1.265   1.533   1.609   1.095   1.224   1.144   1.168   1.014   1.008   1.124   1.069   1.189   1.213   1.218   1.407   1.130   1.248   1.111   1.305   1.046   1.102   1.327   1.279   1.014   1.121   1.258   1.115   1.042   0.878   1.019   1.282   1.536   1.211   1.062   0.900   0.934   0.977   1.040   1.027   1.173   1.344   1.551   1.051   1.120   1.433   1.388   1.369   1.249   1.492   1.687   1.606   1.554   1.319   1.537   1.290   1.163   1.008   1.078   1.349   1.423   1.272   1.348   1.116   1.398   0.964   1.092   1.297   1.254   0.981   1.182   1.104   0.908   1.101   1.337   1.259   1.064   1.014   1.430   1.238   1.402   1.097   1.079   1.144   1.310   1.217   1.157   1.051   1.124   1.069   1.259   1.263   1.212   1.217   1.023   1.360   1.365   1.752   1.740   1.828   1.159   1.029   1.030   0.979   0.980   1.266   0.966   1.038   0.922   0.701   1.160   1.311   1.292   1.131   0.967   0.880   1.082   1.340   1.350   0.933   0.911   1.054   0.899   0.988   1.265   1.350   1.098   0.970   1.150   1.162   1.016   1.208   1.248   0.977   0.987   1.086
   175.86    1.287   1.463   1.557   1.834   1.219   1.317   1.184   1.316   1.306   1.360   1.374   1.320   1.169   1.219   0.957   1.037   1.334   1.434   1.215   1.075   0.801   0.843   1.117   1.244   1.208   1.203   1.184   1.462   1.086   0.923   1.151   0.948   0.974   0.909   1.088   0.818   1.035   0.823   1.122   1.384   1.390   1.417   1.445   1.276   1.128   0.820   0.904   0.953   0.935   0.986   0.942   1.229   1.124   1.085   1.108   1.159   1.242   1.360   1.010   1.364   1.189   1.512   1.503   1.437   1.287   1.405   1.222   1.175   1.308   1.733   1.754   1.132   0.936   1.376   1.298   1.225   1.350   1.354   1.664   1.419   1.540   1.556   1.107   1.416   1.422   1.304   1.146   1.260   1.193   1.078   0.997   1.136   1.115   0.931   1.018   1.172   1.122   1.169   1.410   1.027   1.091   0.957   1.339   1.122   1.397   1.505   1.122   1.165   1.344   1.332   0.997   1.134   1.397   0.916   1.119   1.291   1.179   0.964   1.038   1.164   1.261   1.318   1.408   1.282   1.332   1.429   1.086   0.947   1.147   1.089   0.974   1.203   1.214   0.850   0.988   1.058   1.010   0.957   1.178   0.906   1.040   1.180   0.967   1.297   1.168   0.961   0.885   1.078   1.046   1.085   0.851   0.980   0.999   0.985   0.989   0.991   0.991   1.367   1.251   1.121
   165.52    1.363   1.028   1.366   1.626   1.732   1.719   1.429   1.073   0.993   1.040   1.336   1.499   1.000   1.306   0.957   1.115   1.206   1.228   1.335   0.924   0.980   1.016   0.955   1.188   1.252   1.209   1.079   1.083   1.359   1.234   1.348   0.972   1.142   1.249   1.173   1.075   1.259   1.071   1.152   1.231   1.233   1.326   1.459   1.061   1.121   0.978   0.997   1.205   1.061   1.047   1.193   1.274   1.361   1.218   1.327   0.890   1.048   1.009   1.342   1.281   1.110   1.238   1.253   1.147   1.529   1.747   1.402   1.156   1.440   1.820   1.537   1.153   1.007   1.407   1.118   1.070   1.042   1.318   1.448   1.606   1.731   1.314   1.421   1.264   1.209   1.295   0.818   1.272   1.140   1.166   1.039   1.108   1.243   1.003   1.083   1.109   0.885   1.053   1.219   1.247   1.257   1.352   1.521   1.439   1.514   1.408   1.343   1.312   1.172   1.101   1.031   0.982   1.130   0.910   0.903   1.350   1.413   1.279   1.148   1.104   1.043   1.132   1.265   0.885   1.184   1.304   0.968   1.019   0.967   0.859   0.962   0.971   1.193   1.240   0.949   0.968   0.986   1.166   0.877   1.010   1.054   0.988   1.144   1.421   1.394   0.813   0.905   0.858   0.850   0.917   0.784   0.972   1.141   1.001   1.011   1.082   1.219   1.341   1.318   1.168
   155.17    1.220   1.275   1.698   1.574   1.477   1.412   1.250   1.152   1.446   0.977   1.141   1.388   0.975   1.281   1.172   1.119   1.483   1.344   1.353   1.294   0.988   0.897   1.081   1.203   1.085   1.098   1.390   1.214   1.120   1.435   1.107   1.262   1.099   1.234   0.993   1.063   1.087   1.036   1.077   1.322   1.051   1.225   1.061   1.346   1.507   1.474   1.045   1.252   1.106   0.916   1.166   1.343   1.151   1.338   1.139   1.202   0.866   1.179   1.188   1.067   1.016   1.081   0.977   0.992   1.498   1.737   1.323   1.320   1.471   1.639   1.689   1.338   1.486   1.203   1.495   1.180   1.442   1.129   1.278   1.158   1.371   1.132   1.517   1.204   1.035   1.145   0.952   1.415   1.478   1.313   1.530   1.500   1.314   0.735   1.040   0.872   0.909   1.059   0.863   0.991   1.115   1.364   1.476   1.699   1.464   1.169   1.628   1.082   1.027   1.113   0.763   0.930   1.170   0.933   1.209   1.675   1.393   1.367   1.044   1.008   1.053   1.081   1.033   1.008   1.123   1.217   1.012   0.908   1.070   1.271   0.999   1.190   1.045   1.087   1.024   1.151   0.911   1.042   0.930   0.931   0.965   1.060   1.223   1.187   1.260   0.995   1.111   1.043   1.009   0.979   0.881   0.870   1.078   0.881   0.963   0.986   0.839   1.253   1.521   1.488
   144.83    1.179   1.609   1.649   1.487   1.103   1.151   1.109   1.359   1.309   1.342   1.312   1.444   1.242   1.314   1.115   1.266   1.273   1.584   1.300   1.099   1.313   1.099   0.965   0.994   0.877   0.971   1.044   1.189   1.174   1.256   1.268   1.472   0.999   1.377   0.980   1.271   1.289   1.116   0.936   1.185   0.942   0.968   1.103   1.037   1.262   1.340   1.243   1.310   1.244   1.068   1.273   1.374   1.122   0.850   1.006   1.041   0.955   1.008   1.226   1.151   1.135   0.902   1.011   1.086   1.373   1.748   1.571   1.318   1.371   1.427   1.111   1.271   1.231   0.938   1.146   1.202   1.447   1.702   1.447   1.109   1.175   1.391   1.462   1.076   1.056   1.069   1.414   1.151   1.530   1.555   1.535   1.252   1.428   0.960   0.962   0.796   0.880   1.065   0.904   1.067   0.802   0.922   1.153   1.217   1.518   1.292   1.596   1.374   1.224   1.259   0.975   0.939   1.204   1.043   1.082   1.303   1.458   1.179   1.068   0.960   1.105   0.837   0.971   1.000   1.224   0.982   0.845   1.075   0.976   1.233   1.018   1.014   0.920   0.953   1.307   0.991   1.185   1.263   1.059   1.066   1.234   1.577   1.525   1.191   1.151   0.996   1.238   1.114   1.119   0.909   0.997   1.160   0.927   1.102   1.004   0.998   1.010   0.887   1.374   1.111
   134.48    1.431   1.582   1.686   1.205   1.194   1.113   1.275   1.370   1.414   1.533   1.378   1.233   1.159   1.195   1.093   1.182   1.586   1.438   1.204   1.183   1.295   1.253   0.831   0.944   1.042   0.891   0.963   0.879   0.979   1.033   0.986   1.103   1.114   1.256   1.321   1.346   1.281   1.147   0.975   1.031   1.089   1.063   1.323   1.085   1.068   1.513   1.167   0.875   0.954   1.046   1.282   1.440   0.970   0.786   1.011   1.241   0.996   1.011   1.079   1.162   0.820   1.225   0.911   1.062   1.302   1.301   1.603   1.265   1.528   1.485   0.976   1.007   1.098   0.874   0.953   1.044   1.043   1.355   1.411   1.105   1.185   1.323   1.316   0.817   1.108   1.359   1.196   1.324   1.493   1.356   1.059   1.330   1.361   0.995   0.918   0.745   1.115   1.142   1.118   1.196   0.912   0.930   1.438   1.418   1.253   1.685   1.510   1.433   1.087   1.351   1.245   1.227   1.283   1.523   1.170   1.112   1.202   0.898   1.203   1.288   1.105   1.086   1.058   1.249   1.247   1.231   1.084   1.218   0.933   1.140   1.411   0.926   1.005   1.266   1.628   1.116   1.152   1.406   0.832   0.949   1.070   1.234   1.335   1.051   1.122   1.309   1.319   1.608   1.389   1.502   1.023   0.941   0.857   1.055   0.988   0.895   0.950   1.194   1.392   1.151
   124.14    1.177   1.435   1.328   0.989   0.957   1.100   1.489   1.493   1.365   1.355   1.311   1.042   1.499   1.385   1.042   1.285   1.488   1.611   1.672   1.272   1.007   1.214   1.057   0.894   0.877   1.044   0.896   1.032   1.145   0.955   0.973   1.082   1.137   1.268   1.481   1.476   0.929   0.941   1.142   1.027   1.084   1.560   1.398   1.068   1.269   1.387   1.220   1.218   1.237   1.203   1.390   1.201   1.015   1.049   0.967   0.940   0.869   0.936   0.952   0.966   1.120   1.160   1.101   1.195   1.185   1.044   1.111   1.173   1.444   1.328   1.328   0.904   0.916   0.790   0.925   0.883   1.069   1.256   1.112   1.156   1.114   1.352   1.137   0.859   1.302   1.523   1.349   1.070   1.172   0.951   1.147   1.279   1.002   0.913   1.077   1.023   1.242   1.097   1.016   1.277   1.251   1.386   1.272   1.263   1.476   1.659   1.338   1.581   1.250   1.112   1.568   1.498   1.560   1.584   1.451   1.273   1.132   0.959   0.808   1.003   1.127   0.940   1.169   1.102   1.118   1.139   1.218   1.201   0.997   0.877   1.076   1.049   0.817   1.174   1.422   1.411   1.474   1.363   1.166   0.742   0.978   1.251   1.320   1.504   1.202   1.212   1.168   1.245   1.407   1.232   1.094   1.103   0.955   1.119   0.794   1.015   1.165   0.980   1.364   1.427
   113.79    1.430   1.501   1.398   1.273   1.154   1.298   1.263   1.244   1.278   0.913   0.980   1.164   1.701   1.445   1.325   1.206   1.187   1.455   1.472   1.102   1.238   1.265   0.933   1.021   1.047   0.709   0.971   1.075   0.973   1.224   1.313   1.199   1.302   1.066   1.193   0.843   0.986   0.897   0.959   0.839   0.820   1.227   1.314   1.343   1.153   1.035   0.950   0.977   1.144   1.437   1.243   1.046   1.219   0.806   1.168   1.003   0.817   0.876   1.094   1.215   1.210   0.822   0.790   1.053   0.963   0.950   1.006   1.163   1.340   0.939   1.203   0.808   1.160   0.931   0.819   0.966   1.128   1.191   1.166   1.102   1.371   1.222   1.335   1.196   1.330   1.476   1.010   0.999   0.936   0.913   0.974   0.991   1.033   0.824   1.327   1.342   1.334   1.114   1.292   1.422   1.379   1.331   0.950   1.217   1.180   1.504   1.640   1.662   1.769   1.503   1.704   1.399   1.154   1.255   1.365   1.001   1.050   0.979   0.875   0.974   0.990   1.294   1.341   1.088   1.265   1.167   0.853   0.981   1.111   1.000   1.304   0.991   0.809   1.195   1.161   1.246   1.239   1.130   0.993   0.971   1.280   1.249   1.371   1.384   1.188   1.051   1.382   1.208   0.986   1.163   1.093   1.376   1.109   1.035   1.271   1.127   1.064   0.921   1.234   1.482
   103.45    1.061   1.404   1.386   1.121   1.009   0.924   1.115   1.442   1.588   1.414   0.931   1.232   1.454   1.535   1.324   1.167   1.279   1.501   1.588   0.911   1.224   0.935   0.711   0.822   0.845   0.912   1.234   1.276   1.243   1.389   1.309   1.142   0.862   1.102   1.073   1.018   1.366   1.189   0.961   0.992   1.092   1.076   1.259   1.035   1.170   1.105   0.876   0.887   1.015   1.001   1.309   0.993   0.928   1.172   1.235   1.015   0.979   1.071   0.992   1.027   0.981   0.886   0.800   0.859   0.913   1.358   1.091   1.206   1.110   1.030   1.152   1.381   1.176   1.067   1.222   1.206   1.129   1.243   1.215   1.206   0.933   1.183   0.996   1.332   1.318   1.444   0.913   0.926   0.968   1.008   1.004   0.992   1.007   1.440   1.377   1.227   1.026   0.838   1.103   0.930   0.993   1.073   1.239   1.066   1.021   1.659   1.456   1.474   1.551   1.805   1.873   1.783   1.688   1.469   1.280   0.932   0.823   0.944   1.064   1.015   1.012   1.289   1.327   1.486   1.373   1.047   1.237   1.171   1.167   1.392   1.531   0.947   1.216   1.083   0.989   1.018   1.003   0.846   1.096   0.902   1.353   1.146   1.331   1.249   1.230   1.313   1.151   1.326   1.040   0.830   1.096   1.492   1.356   1.316   1.347   1.070   0.961   0.795   1.004   1.351
    93.10    1.548   1.311   1.539   1.039   0.895   1.061   1.258   1.269   1.386   1.135   0.834   0.999   1.290   1.508   1.264   1.276   1.268   0.960   1.267   1.033   1.284   0.885   1.123   1.120   1.018   1.097   1.281   1.285   1.363   1.141   1.232   1.127   0.914   0.819   1.060   1.429   1.487   1.389   1.038   1.122   1.103   1.032   1.047   1.072   0.908   1.121   1.281   0.923   1.161   1.041   1.135   1.046   1.090   1.129   1.133   1.000   1.087   1.016   0.992   1.061   1.211   0.811   0.906   0.908   1.189   1.277   1.125   0.959   1.203   0.954   1.246   1.390   1.300   0.979   1.236   1.254   1.377   1.111   1.044   0.791   0.990   1.181   0.985   0.966   1.243   1.222   0.963   1.133   1.087   1.207   1.061   1.138   1.009   1.328   1.097   1.134   1.082   0.895   1.135   1.110   0.952   0.995   1.159   1.321   1.239   1.415   1.506   1.657   1.762   1.753   1.747   1.577   1.130   1.260   1.173   0.888   1.081   1.010   0.906   0.855   1.229   1.092   1.107   1.507   1.619   1.411   1.100   1.118   1.090   1.040   1.163   1.311   1.361   1.032   1.013   1.107   1.109   1.033   1.148   1.192   1.228   1.308   1.149   1.520   1.600   1.403   1.210   1.504   1.207   0.967   1.096   1.215   1.465   1.234   1.068   1.034   0.965   1.103   0.875   1.178
    82.76    1.267   1.391   1.378   1.100   1.104   1.169   1.205   1.003   1.034   1.061   0.978   1.051   0.933   1.250   1.340   1.339   1.545   1.301   1.226   1.317   1.328   0.921   1.212   1.220   1.231   1.427   1.425   1.219   1.145   0.860   1.065   1.011   1.062   1.153   1.185   1.380   1.489   1.156   0.973   1.232   1.158   1.080   1.222   1.157   0.997   1.026   1.138   1.277   1.233   1.087   0.921   0.877   0.954   1.205   1.221   0.948   0.957   1.286   0.869   1.262   1.408   1.086   1.126   0.952   1.210   0.781   1.097   0.948   1.304   1.070   1.471   1.343   1.260   1.163   1.413   1.321   1.371   1.266   1.050   1.070   0.974   1.062   0.943   0.872   1.079   0.876   1.225   1.055   0.881   0.960   1.213   1.291   1.306   1.036   1.135   1.183   1.156   0.980   1.028   1.131   1.085   1.318   1.224   0.974   1.205   1.225   1.278   1.686   1.726   1.500   1.189   1.305   1.162   1.194   1.146   0.953   1.000   0.707   0.998   1.150   1.193   1.436   1.103   1.274   1.240   1.352   0.798   0.841   0.926   0.829   1.179   0.973   1.293   1.226   0.961   1.204   1.299   1.123   1.485   1.621   1.376   0.949   1.011   1.112   1.602   1.907   1.618   1.649   1.468   1.024   0.975   0.858   1.128   1.254   1.027   1.049   0.923   0.982   1.195   1.236
    72.41    1.052   1.361   1.227   1.108   1.145   1.094   1.028   1.165   1.047   1.163   1.043   1.120   1.168   1.462   1.360   1.112   1.322   1.173   0.922   1.173   1.372   1.364   1.136   1.013   0.964   1.351   1.247   1.176   0.895   0.880   0.866   0.957   1.294   1.098   1.469   1.209   1.073   1.223   1.016   1.154   0.962   0.930   0.995   1.179   1.103   1.250   1.138   1.207   0.960   0.909   1.151   1.236   1.264   1.238   1.315   1.180   1.015   0.877   1.117   1.227   1.145   1.015   1.187   1.123   1.125   0.951   0.923   1.166   1.142   1.132   1.469   1.778   1.431   1.197   1.023   1.181   1.182   1.292   1.122   1.371   1.315   1.038   1.221   1.129   0.771   0.993   1.016   1.277   1.086   0.940   1.263   1.113   0.891   0.953   0.821   1.178   0.990   0.914   1.241   1.145   1.205   1.205   1.179   0.990   1.179   1.419   1.395   1.566   1.556   1.582   1.202   0.916   1.024   1.211   1.180   0.964   1.042   1.011   0.838   1.121   1.586   1.548   1.149   0.990   1.337   1.307   0.904   0.964   1.120   1.149   1.196   1.120   1.228   1.170   1.021   1.095   1.138   1.415   1.674   1.476   1.106   1.176   0.987   1.374   1.667   1.720   1.733   1.478   1.576   1.064   0.944   1.091   1.035   0.890   1.182   1.057   1.101   0.969   1.088   0.889
    62.07    1.051   1.193   1.347   1.206   0.859   0.895   0.883   0.814   0.888   1.021   1.048   1.323   1.000   1.432   1.231   1.225   1.310   1.331   0.956   1.059   1.296   1.408   0.852   1.059   1.131   1.124   1.238   1.049   0.873   0.995   0.802   0.995   1.316   1.514   1.635   1.215   0.872   1.017   1.293   1.506   1.183   0.956   0.863   1.023   1.099   1.221   0.921   1.363   1.285   1.103   1.005   0.994   1.293   1.127   1.266   1.359   1.126   1.089   0.920   1.058   1.048   1.239   1.247   1.062   0.948   1.020   1.037   1.064   1.374   1.309   1.375   1.364   1.226   0.952   1.053   1.153   1.213   1.094   1.028   0.978   1.231   1.166   1.117   0.995   0.891   1.065   1.288   1.502   1.004   1.061   1.413   1.204   1.386   1.258   0.944   1.051   1.366   1.408   1.216   1.220   1.237   1.274   1.245   1.214   1.287   1.178   1.519   1.375   1.182   1.361   1.037   0.754   1.109   0.863   0.991   1.198   1.175   1.058   1.016   0.918   1.301   1.522   1.454   1.370   1.408   1.395   1.227   0.958   1.215   1.376   1.374   1.442   1.270   1.111   1.005   0.871   1.289   1.472   1.458   1.288   1.196   1.004   1.136   1.353   1.618   1.756   1.704   1.404   1.206   1.132   0.997   1.149   1.098   1.173   1.284   0.955   0.943   0.980   0.819   0.798
    51.72    0.950   1.033   0.959   1.073   0.974   0.764   0.841   0.785   0.913   1.048   0.960   0.990   1.261   1.259   1.254   1.305   1.106   1.006   0.849   1.402   1.192   1.460   1.043   1.052   1.186   1.033   0.881   0.916   1.164   1.052   1.029   1.392   1.416   1.463   1.658   1.379   1.115   1.159   1.065   1.122   1.173   0.823   1.166   1.166   1.062   1.009   1.111   1.296   1.293   0.896   1.125   1.515   1.219   1.057   1.104   1.206   1.232   0.980   0.956   0.972   1.097   1.214   1.481   1.285   0.997   1.286   1.362   1.275   1.210   1.069   1.342   1.452   0.951   0.921   1.085   0.881   0.858   1.056   0.993   1.167   1.352   1.340   1.086   1.054   1.039   1.134   1.287   1.323   1.255   1.166   1.273   1.043   1.276   1.080   1.343   1.020   1.516   1.238   1.387   1.178   1.471   1.246   1.177   1.495   1.397   1.425   1.181   1.459   1.608   1.200   1.303   1.150   1.473   1.102   1.339   1.197   1.161   1.082   1.015   0.999   1.138   1.443   1.807   1.980   1.347   1.617   1.490   0.890   0.961   1.183   1.221   1.191   1.049   1.047   0.721   0.872   1.149   1.104   1.119   1.163   1.222   1.238   0.947   1.374   1.529   1.682   1.273   1.529   1.592   1.023   1.018   1.125   0.968   1.119   1.273   1.019   1.056   1.016   1.024   1.060
    41.38    1.144   0.805   1.073   0.736   0.911   1.076   1.007   1.154   0.933   1.067   1.187   1.200   0.975   0.987   1.115   1.231   1.002   1.132   1.240   1.448   1.453   1.458   0.927   1.206   1.156   0.961   0.779   0.889   1.224   1.408   1.064   1.463   1.201   1.557   1.624   1.171   1.006   0.943   0.957   0.831   1.188   0.909   1.263   1.373   1.065   0.842   0.977   1.088   1.145   1.133   1.153   1.364   1.393   1.032   1.078   1.162   0.970   0.761   0.916   0.717   1.220   1.040   1.380   1.130   1.122   1.126   1.099   0.977   1.286   1.395   1.307   1.471   1.257   0.992   1.029   1.089   1.277   1.507   1.309   1.136   1.301   1.100   1.102   1.053   1.288   1.012   1.232   1.431   1.132   0.810   1.063   1.014   1.092   1.109   1.185   1.555   1.506   1.354   1.418   1.304   1.715   1.263   1.383   1.230   1.522   1.690   1.357   1.475   1.308   1.375   1.242   1.310   1.420   1.175   1.231   1.293   1.093   1.043   1.080   1.302   1.565   1.617   1.855   1.666   1.625   1.624   1.185   1.164   1.026   1.144   0.953   1.011   1.117   0.906   1.062   1.086   1.055   1.015   0.983   0.982   0.912   1.184   1.161   1.420   1.566   1.726   1.162   1.172   1.732   1.482   1.038   1.171   1.193   1.191   1.151   1.166   1.110   1.135   1.148   1.038
    31.03    1.254   1.263   1.253   0.815   0.889   0.940   1.038   1.187   1.348   1.109   1.173   0.992   0.881   0.831   0.909   1.196   1.366   1.415   1.152   1.189   0.863   0.984   0.874   1.003   1.160   1.292   1.050   1.109   1.162   1.476   1.423   1.178   1.260   1.381   1.290   1.643   1.237   1.199   1.028   1.073   1.211   1.238   0.989   1.559   1.159   1.405   0.948   1.176   0.957   0.925   0.922   1.094   1.079   0.985   0.982   0.978   0.927   0.833   1.138   1.182   1.231   1.107   1.299   1.343   1.145   1.509   1.507   1.516   1.484   1.310   1.385   1.204   1.425   1.209   1.025   1.020   1.095   1.120   1.128   1.037   1.103   1.034   1.200   1.460   1.032   1.065   1.378   1.481   1.013   1.259   1.002   0.970   1.034   0.811   1.047   1.199   1.315   1.411   1.356   1.421   1.484   1.139   0.994   1.289   1.730   1.518   1.458   1.722   1.590   1.263   0.891   0.888   1.021   1.184   1.051   1.240   0.821   0.857   1.133   1.027   1.447   1.378   1.338   1.566   1.734   1.745   1.439   1.120   1.104   1.199   1.177   1.183   1.393   1.068   1.013   1.024   0.997   0.791   1.067   1.106   1.017   1.041   1.180   1.282   1.261   1.575   1.269   1.466   1.757   1.937   1.481   1.185   1.229   1.225   1.126   1.107   0.978   1.202   1.127   0.964
    20.69    1.507   1.463   1.302   1.326   0.818   1.191   0.999   1.030   1.030   1.159   1.142   1.113   0.996   0.925   0.743   1.030   1.197   0.923   1.037   1.258   1.022   1.196   1.204   0.927   0.961   1.109   1.107   0.958   1.350   1.321   1.274   1.151   1.347   1.667   1.466   1.720   1.136   1.084   1.318   1.222   1.343   1.172   1.559   1.429   1.567   1.266   1.313   1.310   0.878   1.105   0.916   0.999   0.948   1.070   0.958   0.989   0.848   1.237   1.214   1.471   1.152   1.004   0.990   1.339   1.501   1.494   1.633   1.449   1.244   1.289   1.262   1.090   1.296   1.437   1.517   1.212   1.228   0.968   1.116   1.266   1.430   1.360   1.476   1.617   1.347   1.541   1.451   1.494   1.373   1.042   1.016   0.935   1.136   1.102   0.958   1.119   1.361   1.087   0.988   1.251   1.496   1.454   1.223   1.325   1.405   1.422   1.526   1.420   1.434   1.398   1.076   0.920   0.975   1.234   1.093   1.155   0.843   1.008   0.912   1.136   1.330   1.272   1.214   1.294   1.548   1.427   1.133   1.008   0.969   0.920   1.011   1.002   1.060   1.162   1.358   1.158   0.976   0.849   0.949   1.142   1.066   1.153   0.923   1.021   1.466   1.369   1.600   1.708   1.512   1.653   1.949   1.498   1.506   1.138   1.152   1.261   1.224   0.966   1.185   1.048
    10.34    1.542   1.283   1.465   1.126   1.178   1.041   0.921   0.960   1.108   0.959   0.930   1.057   1.134   0.965   1.177   1.030   0.962   1.134   1.009   1.201   1.309   1.226   1.306   1.227   1.097   1.022   0.926   1.109   1.243   1.206   1.090   1.174   1.532   1.397   1.590   1.591   1.224   1.222   1.402   1.534   1.274   1.114   1.313   1.153   1.532   1.440   1.050   1.331   1.350   1.144   1.165   1.266   1.164   0.888   1.031   0.878   1.098   1.238   1.107   1.405   1.074   1.214   1.054   1.151   1.352   1.600   1.676   1.427   1.564   1.339   1.154   1.210   1.036   1.199   1.417   1.447   1.420   1.048   1.058   1.100   1.333   1.592   1.232   1.522   1.482   1.371   1.404   1.467   1.148   0.908   0.878   1.076   1.290   1.374   1.161   1.166   0.911   0.969   0.862   1.079   1.417   1.409   1.015   1.034   0.990   1.105   1.293   1.433   1.606   1.621   1.022   0.869   0.940   1.225   1.281   0.945   0.998   1.137   1.035   1.230   1.246   1.278   1.492   1.454   1.437   1.546   1.090   1.055   1.234   1.035   0.913   1.117   1.061   1.112   1.416   1.028   0.898   1.017   0.887   1.256   1.003   1.127   0.896   1.265   1.688   1.357   1.421   1.573   1.298   1.529   1.743   1.639   1.377   1.170   1.307   1.088   1.103   1.430   1.365   1.159
     0.00    1.268   1.276   1.419   1.083   1.135   1.340   1.029   1.065   1.085   0.966   1.062   0.959   1.033   0.939   1.051   1.266   1.083   0.985   1.276   1.048   1.053   1.180   1.397   1.269   1.084   1.233   0.948   1.154   1.197   1.002   1.106   1.231   1.134   1.505   1.396   1.382   1.292   1.400   1.566   1.213   1.164   1.098   1.164   1.110   1.274   1.500   1.193   1.266   1.558   1.268   0.833   1.036   1.327   1.026   1.229   1.180   0.879   1.012   0.980   1.115   1.224   1.079   1.398   1.651   1.376   1.336   1.456   1.621   1.247   0.931   0.991   0.978   1.086   1.185   1.140   1.353   1.471   1.416   1.194   1.282   1.243   1.527   1.287   1.436   1.047   0.857   1.137   1.457   1.102   1.115   1.124   1.438   1.716   1.278   1.089   1.157   1.413   1.002   1.125   1.340   1.327   1.319   1.158   1.147   1.162   1.037   1.227   0.956   1.196   1.249   1.255   1.042   0.911   0.992   1.230   0.882   1.060   1.033   0.836   1.111   1.164   1.440   1.225   1.342   1.577   1.728   1.430   1.115   1.107   0.948   0.955   1.214   1.501   1.495   1.221   1.431   1.100   0.936   0.975   1.279   1.325   1.164   1.040   1.161   1.349   1.680   1.509   1.666   1.806   1.620   1.515   1.407   1.383   1.141   1.252   1.422   1.143   1.314   1.509   1.357

   Height   Standard deviation at grid points for the v component:
   300.00    1.199   1.199   1.199   1.199   1.199   1.199   1.199   1.199   1.199   1.199   1.199   1.199   1.199   1.199   1.199   1.199   1.199   1.199   1.199   1.199   1.199   1.199   1.199   1.199   1.199   1.199   1.199   1.199   1.199   1.199   1.199   1.199   1.199   1.199   1.199   1.199   1.199   1.199   1.199   1.199   1.199   1.199   1.199   1.199   1.199   1.199   1.199   1.199   1.199   1.199   1.199   1.199   1.199   1.199   1.199   1.199   1.199   1.199   1.199   1.199   1.199   1.199   1.199   1.199   1.199   1.199   1.199   1.199   1.199   1.199   1.199   1.199   1.199   1.199   1.199   1.199   1.199   1.199   1.199   1.199   1.199   1.199   1.199   1.199   1.199   1.199   1.199   1.199   1.199   1.199   1.199   1.199   1.199   1.199   1.199   1.199   1.199   1.199   1.199   1.199   1.199   1.199   1.199   1.199   1.199   1.199   1.199   1.199   1.199   1.199   1.199   1.199   1.199   1.199   1.199   1.199   1.199   1.199   1.199   1.199   1.199   1.199   1.199   1.199   1.199   1.199   1.199   1.199   1.199   1.199   1.199   1.199   1.199   1.199   1.199   1.199   1.199   1.199   1.199   1.199   1.199   1.199   1.199   1.199   1.199   1.199   1.199   1.199   1.199   1.199   1.199   1.199   1.199   1.199   1.199   1.199   1.199   1.199   1.199   1.199
   289.66    1.199   1.199   1.199   1.199   1.199   1.199   1.199   1.199   1.199   1.199   1.199   1.199   1.199   1.199   1.199   1.199   1.199   1.199   1.199   1.199   1.199   1.199   1.199   1.199   1.199   1.199   1.199   1.199   1.199   1.199   1.199   1.199   1.199   1.199   1.199   1.199   1.199   1.199   1.199   1.199   1.199   1.199   1.199   1.199   1.199   1.199   1.199   1.199   1.199   1.199   1.199   1.199   1.199   1.199   1.199   1.199   1.199   1.199   1.199   1.199   1.199   1.199   1.199   1.199   1.199   1.199   1.199   1.199   1.199   1.199   1.199   1.199   1.199   1.199   1.199   1.199   1.199   1.199   1.199   1.199   1.199   1.199   1.199   1.199   1.199   1.199   1.199   1.199   1.199   1.199   1.199   1.199   1.199   1.199   1.199   1.199   1.199   1.199   1.199   1.199   1.199   1.199   1.199   1.199   1.199   1.199   1.199   1.199   1.199   1.199   1.199   1.199   1.199   1.199   1.199   1.199   1.199   1.199   1.199   1.199   1.199   1.199   1.199   1.199   1.199   1.199   1.199   1.199   1.199   1.199   1.199   1.199   1.199   1.199   1.199   1.199   1.199   1.199   1.199   1.199   1.199   1.199   1.199   1.199   1.199   1.199   1.199   1.199   1.199   1.199   1.199   1.199   1.199   1.199   1.199   1.199   1.199   1.199   1.199   1.199
   279.31    1.199   1.199   1.199   1.199   1.199   1.199   1.199   1.199   1.199   1.199   1.199   1.199   1.199   1.199   1.199   1.199   1.199   1.199   1.199   1.199   1.199   1.199   1.199   1.199   1.199   1.199   1.199   1.199   1.199   1.199   1.199   1.199   1.199   1.199   1.199   1.199   1.199   1.199   1.199   1.199   1.199   1.199   1.199   1.199   1.199   1.199   1.199   1.199   1.199   1.199   1.199   1.199   1.199   1.199   1.199   1.199   1.199   1.199   1.199   1.199   1.199   1.199   1.199   1.199   1.199   1.199   1.199   1.199   1.199   1.199   1.199   1.199   1.199   1.199   1.199   1.199   1.199   1.199   1.199   1.199   1.199   1.199   1.199   1.199   1.199   1.199   1.199   1.199   1.199   1.199   1.199   1.199   1.199   1.199   1.199   1.199   1.199   1.199   1.199   1.199   1.199   1.199   1.199   1.199   1.199   1.199   1.199   1.199   1.199   1.199   1.199   1.199   1.199   1.199   1.199   1.199   1.199   1.199   1.199   1.199   1.199   1.199   1.199   1.199   1.199   1.199   1.199   1.199   1.199   1.199   1.199   1.199   1.199   1.199   1.199   1.199   1.199   1.199   1.199   1.199   1.199   1.199   1.199   1.199   1.199   1.199   1.199   1.199   1.199   1.199   1.199   1.199   1.199   1.199   1.199   1.199   1.199   1.199   1.199   1.199
   268.97    1.199   1.199   1.199   1.199   1.199   1.199   1.199   1.199   1.199   1.199   1.199   1.199   1.199   1.199   1.199   1.199   1.199   1.199   1.199   1.199   1.199   1.199   1.199   1.199   1.199   1.199   1.199   1.199   1.199   1.199   1.199   1.199   1.199   1.199   1.199   1.199   1.199   1.199   1.199   1.199   1.199   1.199   1.199   1.199   1.199   1.199   1.199   1.199   1.199   1.199   1.199   1.199   1.199   1.199   1.199   1.199   1.199   1.199   1.199   1.199   1.199   1.199   1.199   1.199   1.199   1.199   1.199   1.199   1.199   1.199   1.199   1.199   1.199   1.199   1.199   1.199   1.199   1.199   1.199   1.199   1.199   1.199   1.199   1.199   1.199   1.199   1.199   1.199   1.199   1.199   1.199   1.199   1.199   1.199   1.199   1.199   1.199   1.199   1.199   1.199   1.199   1.199   1.199   1.199   1.199   1.199   1.199   1.199   1.199   1.199   1.199   1.199   1.199   1.199   1.199   1.199   1.199   1.199   1.199   1.199   1.199   1.199   1.199   1.199   1.199   1.199   1.199   1.199   1.199   1.199   1.199   1.199   1.199   1.199   1.199   1.199   1.199   1.199   1.199   1.199   1.199   1.199   1.199   1.199   1.199   1.199   1.199   1.199   1.199   1.199   1.199   1.199   1.199   1.199   1.199   1.199   1.199   1.199   1.199   1.199
   258.62    1.199   1.199   1.199   1.199   1.199   1.199   1.199   1.199   1.199   1.199   1.199   1.199   1.199   1.199   1.199   1.199   1.199   1.199   1.199   1.199   1.199   1.199   1.199   1.199   1.199   1.199   1.199   1.199   1.199   1.199   1.199   1.199   1.199   1.199   1.199   1.199   1.199   1.199   1.199   1.199   1.199   1.199   1.199   1.199   1.199   1.199   1.199   1.199   1.199   1.199   1.199   1.199   1.199   1.199   1.199   1.199   1.199   1.199   1.199   1.199   1.199   1.199   1.199   1.199   1.199   1.199   1.199   1.199   1.199   1.199   1.199   1.199   1.199   1.199   1.199   1.199   1.199   1.199   1.199   1.199   1.199   1.199   1.199   1.199   1.199   1.199   1.199   1.199   1.199   1.199   1.199   1.199   1.199   1.199   1.199   1.199   1.199   1.199   1.199   1.199   1.199   1.199   1.199   1.199   1.199   1.199   1.199   1.199   1.199   1.199   1.199   1.199   1.199   1.199   1.199   1.199   1.199   1.199   1.199   1.199   1.199   1.199   1.199   1.199   1.199   1.199   1.199   1.199   1.199   1.199   1.199   1.199   1.199   1.199   1.199   1.199   1.199   1.199   1.199   1.199   1.199   1.199   1.199   1.199   1.199   1.199   1.199   1.199   1.199   1.199   1.199   1.199   1.199   1.199   1.199   1.199   1.199   1.199   1.199   1.199
   248.28    1.199   1.199   1.199   1.199   1.199   1.199   1.199   1.199   1.199   1.199   1.199   1.199   1.199   1.199   1.199   1.199   1.199   1.199   1.199   1.199   1.199   1.199   1.199   1.199   1.199   1.199   1.199   1.199   1.199   1.199   1.199   1.199   1.199   1.199   1.199   1.199   1.199   1.199   1.199   1.199   1.199   1.199   1.199   1.199   1.199   1.199   1.199   1.199   1.199   1.199   1.199   1.199   1.199   1.199   1.199   1.199   1.199   1.199   1.199   1.199   1.199   1.199   1.199   1.199   1.199   1.199   1.199   1.199   1.199   1.199   1.199   1.199   1.199   1.199   1.199   1.199   1.199   1.199   1.199   1.199   1.199   1.199   1.199   1.199   1.199   1.199   1.199   1.199   1.199   1.199   1.199   1.199   1.199   1.199   1.199   1.199   1.199   1.199   1.199   1.199   1.199   1.199   1.199   1.199   1.199   1.199   1.199   1.199   1.199   1.199   1.199   1.199   1.199   1.199   1.199   1.199   1.199   1.199   1.199   1.199   1.199   1.199   1.199   1.199   1.199   1.199   1.199   1.199   1.199   1.199   1.199   1.199   1.199   1.199   1.199   1.199   1.199   1.199   1.199   1.199   1.199   1.199   1.199   1.199   1.199   1.199   1.199   1.199   1.199   1.199   1.199   1.199   1.199   1.199   1.199   1.199   1.199   1.199   1.199   1.199
   237.93    1.199   1.199   1.199   1.199   1.199   1.199   1.199   1.199   1.199   1.199   1.199   1.199   1.199   1.199   1.199   1.199   1.199   1.199   1.199   1.199   1.199   1.199   1.199   1.199   1.199   1.199   1.199   1.199   1.199   1.199   1.199   1.199   1.199   1.199   1.199   1.199   1.199   1.199   1.199   1.199   1.199   1.199   1.199   1.199   1.199   1.199   1.199   1.199   1.199   1.199   1.199   1.199   1.199   1.199   1.199   1.199   1.199   1.199   1.199   1.199   1.199   1.199   1.199   1.199   1.199   1.199   1.199   1.199   1.199   1.199   1.199   1.199   1.199   1.199   1.199   1.199   1.199   1.199   1.199   1.199   1.199   1.199   1.199   1.199   1.199   1.199   1.199   1.199   1.199   1.199   1.199   1.199   1.199   1.199   1.199   1.199   1.199   1.199   1.199   1.199   1.199   1.199   1.199   1.199   1.199   1.199   1.199   1.199   1.199   1.199   1.199   1.199   1.199   1.199   1.199   1.199   1.199   1.199   1.199   1.199   1.199   1.199   1.199   1.199   1.199   1.199   1.199   1.199   1.199   1.199   1.199   1.199   1.199   1.199   1.199   1.199   1.199   1.199   1.199   1.199   1.199   1.199   1.199   1.199   1.199   1.199   1.199   1.199   1.199   1.199   1.199   1.199   1.199   1.199   1.199   1.199   1.199   1.199   1.199   1.199
   227.59    1.199   1.199   1.199   1.199   1.199   1.199   1.199   1.199   1.199   1.199   1.199   1.199   1.199   1.199   1.199   1.199   1.199   1.199   1.199   1.199   1.199   1.199   1.199   1.199   1.199   1.199   1.199   1.199   1.199   1.199   1.199   1.199   1.199   1.199   1.199   1.199   1.199   1.199   1.199   1.199   1.199   1.199   1.199   1.199   1.199   1.199   1.199   1.199   1.199   1.199   1.199   1.199   1.199   1.199   1.199   1.199   1.199   1.199   1.199   1.199   1.199   1.199   1.199   1.199   1.199   1.199   1.199   1.199   1.199   1.199   1.199   1.199   1.199   1.199   1.199   1.199   1.199   1.199   1.199   1.199   1.199   1.199   1.199   1.199   1.199   1.199   1.199   1.199   1.199   1.199   1.199   1.199   1.199   1.199   1.199   1.199   1.199   1.199   1.199   1.199   1.199   1.199   1.199   1.199   1.199   1.199   1.199   1.199   1.199   1.199   1.199   1.199   1.199   1.199   1.199   1.199   1.199   1.199   1.199   1.199   1.199   1.199   1.199   1.199   1.199   1.199   1.199   1.199   1.199   1.199   1.199   1.199   1.199   1.199   1.199   1.199   1.199   1.199   1.199   1.199   1.199   1.199   1.199   1.199   1.199   1.199   1.199   1.199   1.199   1.199   1.199   1.199   1.199   1.199   1.199   1.199   1.199   1.199   1.199   1.199
   217.24    1.199   1.199   1.199   1.199   1.199   1.199   1.199   1.199   1.199   1.199   1.199   1.199   1.199   1.199   1.199   1.199   1.199   1.199   1.199   1.199   1.199   1.199   1.199   1.199   1.199   1.199   1.199   1.199   1.199   1.199   1.199   1.199   1.199   1.199   1.199   1.199   1.199   1.199   1.199   1.199   1.199   1.199   1.199   1.199   1.199   1.199   1.199   1.199   1.199   1.199   1.199   1.199   1.199   1.199   1.199   1.199   1.199   1.199   1.199   1.199   1.199   1.199   1.199   1.199   1.199   1.199   1.199   1.199   1.199   1.199   1.199   1.199   1.199   1.199   1.199   1.199   1.199   1.199   1.199   1.199   1.199   1.199   1.199   1.199   1.199   1.199   1.199   1.199   1.199   1.199   1.199   1.199   1.199   1.199   1.199   1.199   1.199   1.199   1.199   1.199   1.199   1.199   1.199   1.199   1.199   1.199   1.199   1.199   1.199   1.199   1.199   1.199   1.199   1.199   1.199   1.199   1.199   1.199   1.199   1.199   1.199   1.199   1.199   1.199   1.199   1.199   1.199   1.199   1.199   1.199   1.199   1.199   1.199   1.199   1.199   1.199   1.199   1.199   1.199   1.199   1.199   1.199   1.199   1.199   1.199   1.199   1.199   1.199   1.199   1.199   1.199   1.199   1.199   1.199   1.199   1.199   1.199   1.199   1.199   1.199
   206.90    1.199   1.199   1.199   1.199   1.199   1.199   1.199   1.199   1.199   1.199   1.199   1.199   1.199   1.199   1.199   1.199   1.199   1.199   1.199   1.199   1.199   1.199   1.199   1.199   1.199   1.199   1.199   1.199   1.199   1.199   1.199   1.199   1.199   1.199   1.199   1.199   1.199   1.199   1.199   1.199   1.199   1.199   1.199   1.199   1.199   1.199   1.199   1.199   1.199   1.199   1.199   1.199   1.199   1.199   1.199   1.199   1.199   1.199   1.199   1.199   1.199   1.199   1.199   1.199   1.199   1.199   1.199   1.199   1.199   1.199   1.199   1.199   1.199   1.199   1.199   1.199   1.199   1.199   1.199   1.199   1.199   1.199   1.199   1.199   1.199   1.199   1.199   1.199   1.199   1.199   1.199   1.199   1.199   1.199   1.199   1.199   1.199   1.199   1.199   1.199   1.199   1.199   1.199   1.199   1.199   1.199   1.199   1.199   1.199   1.199   1.199   1.199   1.199   1.199   1.199   1.199   1.199   1.199   1.199   1.199   1.199   1.199   1.199   1.199   1.199   1.199   1.199   1.199   1.199   1.199   1.199   1.199   1.199   1.199   1.199   1.199   1.199   1.199   1.199   1.199   1.199   1.199   1.199   1.199   1.199   1.199   1.199   1.199   1.199   1.199   1.199   1.199   1.199   1.199   1.199   1.199   1.199   1.199   1.199   1.199
   196.55    1.199   1.199   1.199   1.199   1.199   1.199   1.199   1.199   1.199   1.199   1.199   1.199   1.199   1.199   1.199   1.199   1.199   1.199   1.199   1.199   1.199   1.199   1.199   1.199   1.199   1.199   1.199   1.199   1.199   1.199   1.199   1.199   1.199   1.199   1.199   1.199   1.199   1.199   1.199   1.199   1.199   1.199   1.199   1.199   1.199   1.199   1.199   1.199   1.199   1.199   1.199   1.199   1.199   1.199   1.199   1.199   1.199   1.199   1.199   1.199   1.199   1.199   1.199   1.199   1.199   1.199   1.199   1.199   1.199   1.199   1.199   1.199   1.199   1.199   1.199   1.199   1.199   1.199   1.199   1.199   1.199   1.199   1.199   1.199   1.199   1.199   1.199   1.199   1.199   1.199   1.199   1.199   1.199   1.199   1.199   1.199   1.199   1.199   1.199   1.199   1.199   1.199   1.199   1.199   1.199   1.199   1.199   1.199   1.199   1.199   1.199   1.199   1.199   1.199   1.199   1.199   1.199   1.199   1.199   1.199   1.199   1.199   1.199   1.199   1.199   1.199   1.199   1.199   1.199   1.199   1.199   1.199   1.199   1.199   1.199   1.199   1.199   1.199   1.199   1.199   1.199   1.199   1.199   1.199   1.199   1.199   1.199   1.199   1.199   1.199   1.199   1.199   1.199   1.199   1.199   1.199   1.199   1.199   1.199   1.199
   186.21    1.199   1.199   1.199   1.199   1.199   1.199   1.199   1.199   1.199   1.199   1.199   1.199   1.199   1.199   1.199   1.199   1.199   1.199   1.199   1.199   1.199   1.199   1.199   1.199   1.199   1.199   1.199   1.199   1.199   1.199   1.199   1.199   1.199   1.199   1.199   1.199   1.199   1.199   1.199   1.199   1.199   1.199   1.199   1.199   1.199   1.199   1.199   1.199   1.199   1.199   1.199   1.199   1.199   1.199   1.199   1.199   1.199   1.199   1.199   1.199   1.199   1.199   1.199   1.199   1.199   1.199   1.199   1.199   1.199   1.199   1.199   1.199   1.199   1.199   1.199   1.199   1.199   1.199   1.199   1.199   1.199   1.199   1.199   1.199   1.199   1.199   1.199   1.199   1.199   1.199   1.199   1.199   1.199   1.199   1.199   1.199   1.199   1.199   1.199   1.199   1.199   1.199   1.199   1.199   1.199   1.199   1.199   1.199   1.199   1.199   1.199   1.199   1.199   1.199   1.199   1.199   1.199   1.199   1.199   1.199   1.199   1.199   1.199   1.199   1.199   1.199   1.199   1.199   1.199   1.199   1.199   1.199   1.199   1.199   1.199   1.199   1.199   1.199   1.199   1.199   1.199   1.199   1.199   1.199   1.199   1.199   1.199   1.199   1.199   1.199   1.199   1.199   1.199   1.199   1.199   1.199   1.199   1.199   1.199   1.199
   175.86    1.199   1.199   1.199   1.199   1.199   1.199   1.199   1.199   1.199   1.199   1.199   1.199   1.199   1.199   1.199   1.199   1.199   1.199   1.199   1.199   1.199   1.199   1.199   1.199   1.199   1.199   1.199   1.199   1.199   1.199   1.199   1.199   1.199   1.199   1.199   1.199   1.199   1.199   1.199   1.199   1.199   1.199   1.199   1.199   1.199   1.199   1.199   1.199   1.199   1.199   1.199   1.199   1.199   1.199   1.199   1.199   1.199   1.199   1.199   1.199   1.199   1.199   1.199   1.199   1.199   1.199   1.199   1.199   1.199   1.199   1.199   1.199   1.199   1.199   1.199   1.199   1.199   1.199   1.199   1.199   1.199   1.199   1.199   1.199   1.199   1.199   1.199   1.199   1.199   1.199   1.199   1.199   1.199   1.199   1.199   1.199   1.199   1.199   1.199   1.199   1.199   1.199   1.199   1.199   1.199   1.199   1.199   1.199   1.199   1.199   1.199   1.199   1.199   1.199   1.199   1.199   1.199   1.199   1.199   1.199   1.199   1.199   1.199   1.199   1.199   1.199   1.199   1.199   1.199   1.199   1.199   1.199   1.199   1.199   1.199   1.199   1.199   1.199   1.199   1.199   1.199   1.199   1.199   1.199   1.199   1.199   1.199   1.199   1.199   1.199   1.199   1.199   1.199   1.199   1.199   1.199   1.199   1.199   1.199   1.199
   165.52    1.199   1.199   1.199   1.199   1.199   1.199   1.199   1.199   1.199   1.199   1.199   1.199   1.199   1.199   1.199   1.199   1.199   1.199   1.199   1.199   1.199   1.199   1.199   1.199   1.199   1.199   1.199   1.199   1.199   1.199   1.199   1.199   1.199   1.199   1.199   1.199   1.199   1.199   1.199   1.199   1.199   1.199   1.199   1.199   1.199   1.199   1.199   1.199   1.199   1.199   1.199   1.199   1.199   1.199   1.199   1.199   1.199   1.199   1.199   1.199   1.199   1.199   1.199   1.199   1.199   1.199   1.199   1.199   1.199   1.199   1.199   1.199   1.199   1.199   1.199   1.199   1.199   1.199   1.199   1.199   1.199   1.199   1.199   1.199   1.199   1.199   1.199   1.199   1.199   1.199   1.199   1.199   1.199   1.199   1.199   1.199   1.199   1.199   1.199   1.199   1.199   1.199   1.199   1.199   1.199   1.199   1.199   1.199   1.199   1.199   1.199   1.199   1.199   1.199   1.199   1.199   1.199   1.199   1.199   1.199   1.199   1.199   1.199   1.199   1.199   1.199   1.199   1.199   1.199   1.199   1.199   1.199   1.199   1.199   1.199   1.199   1.199   1.199   1.199   1.199   1.199   1.199   1.199   1.199   1.199   1.199   1.199   1.199   1.199   1.199   1.199   1.199   1.199   1.199   1.199   1.199   1.199   1.199   1.199   1.199
   155.17    1.199   1.199   1.199   1.199   1.199   1.199   1.199   1.199   1.199   1.199   1.199   1.199   1.199   1.199   1.199   1.199   1.199   1.199   1.199   1.199   1.199   1.199   1.199   1.199   1.199   1.199   1.199   1.199   1.199   1.199   1.199   1.199   1.199   1.199   1.199   1.199   1.199   1.199   1.199   1.199   1.199   1.199   1.199   1.199   1.199   1.199   1.199   1.199   1.199   1.199   1.199   1.199   1.199   1.199   1.199   1.199   1.199   1.199   1.199   1.199   1.199   1.199   1.199   1.199   1.199   1.199   1.199   1.199   1.199   1.199   1.199   1.199   1.199   1.199   1.199   1.199   1.199   1.199   1.199   1.199   1.199   1.199   1.199   1.199   1.199   1.199   1.199   1.199   1.199   1.199   1.199   1.199   1.199   1.199   1.199   1.199   1.199   1.199   1.199   1.199   1.199   1.199   1.199   1.199   1.199   1.199   1.199   1.199   1.199   1.199   1.199   1.199   1.199   1.199   1.199   1.199   1.199   1.199   1.199   1.199   1.199   1.199   1.199   1.199   1.199   1.199   1.199   1.199   1.199   1.199   1.199   1.199   1.199   1.199   1.199   1.199   1.199   1.199   1.199   1.199   1.199   1.199   1.199   1.199   1.199   1.199   1.199   1.199   1.199   1.199   1.199   1.199   1.199   1.199   1.199   1.199   1.199   1.199   1.199   1.199
   144.83    1.199   1.199   1.199   1.199   1.199   1.199   1.199   1.199   1.199   1.199   1.199   1.199   1.199   1.199   1.199   1.199   1.199   1.199   1.199   1.199   1.199   1.199   1.199   1.199   1.199   1.199   1.199   1.199   1.199   1.199   1.199   1.199   1.199   1.199   1.199   1.199   1.199   1.199   1.199   1.199   1.199   1.199   1.199   1.199   1.199   1.199   1.199   1.199   1.199   1.199   1.199   1.199   1.199   1.199   1.199   1.199   1.199   1.199   1.199   1.199   1.199   1.199   1.199   1.199   1.199   1.199   1.199   1.199   1.199   1.199   1.199   1.199   1.199   1.199   1.199   1.199   1.199   1.199   1.199   1.199   1.199   1.199   1.199   1.199   1.199   1.199   1.199   1.199   1.199   1.199   1.199   1.199   1.199   1.199   1.199   1.199   1.199   1.199   1.199   1.199   1.199   1.199   1.199   1.199   1.199   1.199   1.199   1.199   1.199   1.199   1.199   1.199   1.199   1.199   1.199   1.199   1.199   1.199   1.199   1.199   1.199   1.199   1.199   1.199   1.199   1.199   1.199   1.199   1.199   1.199   1.199   1.199   1.199   1.199   1.199   1.199   1.199   1.199   1.199   1.199   1.199   1.199   1.199   1.199   1.199   1.199   1.199   1.199   1.199   1.199   1.199   1.199   1.199   1.199   1.199   1.199   1.199   1.199   1.199   1.199
   134.48    1.199   1.199   1.199   1.199   1.199   1.199   1.199   1.199   1.199   1.199   1.199   1.199   1.199   1.199   1.199   1.199   1.199   1.199   1.199   1.199   1.199   1.199   1.199   1.199   1.199   1.199   1.199   1.199   1.199   1.199   1.199   1.199   1.199   1.199   1.199   1.199   1.199   1.199   1.199   1.199   1.199   1.199   1.199   1.199   1.199   1.199   1.199   1.199   1.199   1.199   1.199   1.199   1.199   1.199   1.199   1.199   1.199   1.199   1.199   1.199   1.199   1.199   1.199   1.199   1.199   1.199   1.199   1.199   1.199   1.199   1.199   1.199   1.199   1.199   1.199   1.199   1.199   1.199   1.199   1.199   1.199   1.199   1.199   1.199   1.199   1.199   1.199   1.199   1.199   1.199   1.199   1.199   1.199   1.199   1.199   1.199   1.199   1.199   1.199   1.199   1.199   1.199   1.199   1.199   1.199   1.199   1.199   1.199   1.199   1.199   1.199   1.199   1.199   1.199   1.199   1.199   1.199   1.199   1.199   1.199   1.199   1.199   1.199   1.199   1.199   1.199   1.199   1.199   1.199   1.199   1.199   1.199   1.199   1.199   1.199   1.199   1.199   1.199   1.199   1.199   1.199   1.199   1.199   1.199   1.199   1.199   1.199   1.199   1.199   1.199   1.199   1.199   1.199   1.199   1.199   1.199   1.199   1.199   1.199   1.199
   124.14    1.199   1.199   1.199   1.199   1.199   1.199   1.199   1.199   1.199   1.199   1.199   1.199   1.199   1.199   1.199   1.199   1.199   1.199   1.199   1.199   1.199   1.199   1.199   1.199   1.199   1.199   1.199   1.199   1.199   1.199   1.199   1.199   1.199   1.199   1.199   1.199   1.199   1.199   1.199   1.199   1.199   1.199   1.199   1.199   1.199   1.199   1.199   1.199   1.199   1.199   1.199   1.199   1.199   1.199   1.199   1.199   1.199   1.199   1.199   1.199   1.199   1.199   1.199   1.199   1.199   1.199   1.199   1.199   1.199   1.199   1.199   1.199   1.199   1.199   1.199   1.199   1.199   1.199   1.199   1.199   1.199   1.199   1.199   1.199   1.199   1.199   1.199   1.199   1.199   1.199   1.199   1.199   1.199   1.199   1.199   1.199   1.199   1.199   1.199   1.199   1.199   1.199   1.199   1.199   1.199   1.199   1.199   1.199   1.199   1.199   1.199   1.199   1.199   1.199   1.199   1.199   1.199   1.199   1.199   1.199   1.199   1.199   1.199   1.199   1.199   1.199   1.199   1.199   1.199   1.199   1.199   1.199   1.199   1.199   1.199   1.199   1.199   1.199   1.199   1.199   1.199   1.199   1.199   1.199   1.199   1.199   1.199   1.199   1.199   1.199   1.199   1.199   1.199   1.199   1.199   1.199   1.199   1.199   1.199   1.199
   113.79    1.199   1.199   1.199   1.199   1.199   1.199   1.199   1.199   1.199   1.199   1.199   1.199   1.199   1.199   1.199   1.199   1.199   1.199   1.199   1.199   1.199   1.199   1.199   1.199   1.199   1.199   1.199   1.199   1.199   1.199   1.199   1.199   1.199   1.199   1.199   1.199   1.199   1.199   1.199   1.199   1.199   1.199   1.199   1.199   1.199   1.199   1.199   1.199   1.199   1.199   1.199   1.199   1.199   1.199   1.199   1.199   1.199   1.199   1.199   1.199   1.199   1.199   1.199   1.199   1.199   1.199   1.199   1.199   1.199   1.199   1.199   1.199   1.199   1.199   1.199   1.199   1.199   1.199   1.199   1.199   1.199   1.199   1.199   1.199   1.199   1.199   1.199   1.199   1.199   1.199   1.199   1.199   1.199   1.199   1.199   1.199   1.199   1.199   1.199   1.199   1.199   1.199   1.199   1.199   1.199   1.199   1.199   1.199   1.199   1.199   1.199   1.199   1.199   1.199   1.199   1.199   1.199   1.199   1.199   1.199   1.199   1.199   1.199   1.199   1.199   1.199   1.199   1.199   1.199   1.199   1.199   1.199   1.199   1.199   1.199   1.199   1.199   1.199   1.199   1.199   1.199   1.199   1.199   1.199   1.199   1.199   1.199   1.199   1.199   1.199   1.199   1.199   1.199   1.199   1.199   1.199   1.199   1.199   1.199   1.199
   103.45    1.199   1.199   1.199   1.199   1.199   1.199   1.199   1.199   1.199   1.199   1.199   1.199   1.199   1.199   1.199   1.199   1.199   1.199   1.199   1.199   1.199   1.199   1.199   1.199   1.199   1.199   1.199   1.199   1.199   1.199   1.199   1.199   1.199   1.199   1.199   1.199   1.199   1.199   1.199   1.199   1.199   1.199   1.199   1.199   1.199   1.199   1.199   1.199   1.199   1.199   1.199   1.199   1.199   1.199   1.199   1.199   1.199   1.199   1.199   1.199   1.199   1.199   1.199   1.199   1.199   1.199   1.199   1.199   1.199   1.199   1.199   1.199   1.199   1.199   1.199   1.199   1.199   1.199   1.199   1.199   1.199   1.199   1.199   1.199   1.199   1.199   1.199   1.199   1.199   1.199   1.199   1.199   1.199   1.199   1.199   1.199   1.199   1.199   1.199   1.199   1.199   1.199   1.199   1.199   1.199   1.199   1.199   1.199   1.199   1.199   1.199   1.199   1.199   1.199   1.199   1.199   1.199   1.199   1.199   1.199   1.199   1.199   1.199   1.199   1.199   1.199   1.199   1.199   1.199   1.199   1.199   1.199   1.199   1.199   1.199   1.199   1.199   1.199   1.199   1.199   1.199   1.199   1.199   1.199   1.199   1.199   1.199   1.199   1.199   1.199   1.199   1.199   1.199   1.199   1.199   1.199   1.199   1.199   1.199   1.199
    93.10    1.199   1.199   1.199   1.199   1.199   1.199   1.199   1.199   1.199   1.199   1.199   1.199   1.199   1.199   1.199   1.199   1.199   1.199   1.199   1.199   1.199   1.199   1.199   1.199   1.199   1.199   1.199   1.199   1.199   1.199   1.199   1.199   1.199   1.199   1.199   1.199   1.199   1.199   1.199   1.199   1.199   1.199   1.199   1.199   1.199   1.199   1.199   1.199   1.199   1.199   1.199   1.199   1.199   1.199   1.199   1.199   1.199   1.199   1.199   1.199   1.199   1.199   1.199   1.199   1.199   1.199   1.199   1.199   1.199   1.199   1.199   1.199   1.199   1.199   1.199   1.199   1.199   1.199   1.199   1.199   1.199   1.199   1.199   1.199   1.199   1.199   1.199   1.199   1.199   1.199   1.199   1.199   1.199   1.199   1.199   1.199   1.199   1.199   1.199   1.199   1.199   1.199   1.199   1.199   1.199   1.199   1.199   1.199   1.199   1.199   1.199   1.199   1.199   1.199   1.199   1.199   1.199   1.199   1.199   1.199   1.199   1.199   1.199   1.199   1.199   1.199   1.199   1.199   1.199   1.199   1.199   1.199   1.199   1.199   1.199   1.199   1.199   1.199   1.199   1.199   1.199   1.199   1.199   1.199   1.199   1.199   1.199   1.199   1.199   1.199   1.199   1.199   1.199   1.199   1.199   1.199   1.199   1.199   1.199   1.199
    82.76    1.199   1.199   1.199   1.199   1.199   1.199   1.199   1.199   1.199   1.199   1.199   1.199   1.199   1.199   1.199   1.199   1.199   1.199   1.199   1.199   1.199   1.199   1.199   1.199   1.199   1.199   1.199   1.199   1.199   1.199   1.199   1.199   1.199   1.199   1.199   1.199   1.199   1.199   1.199   1.199   1.199   1.199   1.199   1.199   1.199   1.199   1.199   1.199   1.199   1.199   1.199   1.199   1.199   1.199   1.199   1.199   1.199   1.199   1.199   1.199   1.199   1.199   1.199   1.199   1.199   1.199   1.199   1.199   1.199   1.199   1.199   1.199   1.199   1.199   1.199   1.199   1.199   1.199   1.199   1.199   1.199   1.199   1.199   1.199   1.199   1.199   1.199   1.199   1.199   1.199   1.199   1.199   1.199   1.199   1.199   1.199   1.199   1.199   1.199   1.199   1.199   1.199   1.199   1.199   1.199   1.199   1.199   1.199   1.199   1.199   1.199   1.199   1.199   1.199   1.199   1.199   1.199   1.199   1.199   1.199   1.199   1.199   1.199   1.199   1.199   1.199   1.199   1.199   1.199   1.199   1.199   1.199   1.199   1.199   1.199   1.199   1.199   1.199   1.199   1.199   1.199   1.199   1.199   1.199   1.199   1.199   1.199   1.199   1.199   1.199   1.199   1.199   1.199   1.199   1.199   1.199   1.199   1.199   1.199   1.199
    72.41    1.199   1.199   1.199   1.199   1.199   1.199   1.199   1.199   1.199   1.199   1.199   1.199   1.199   1.199   1.199   1.199   1.199   1.199   1.199   1.199   1.199   1.199   1.199   1.199   1.199   1.199   1.199   1.199   1.199   1.199   1.199   1.199   1.199   1.199   1.199   1.199   1.199   1.199   1.199   1.199   1.199   1.199   1.199   1.199   1.199   1.199   1.199   1.199   1.199   1.199   1.199   1.199   1.199   1.199   1.199   1.199   1.199   1.199   1.199   1.199   1.199   1.199   1.199   1.199   1.199   1.199   1.199   1.199   1.199   1.199   1.199   1.199   1.199   1.199   1.199   1.199   1.199   1.199   1.199   1.199   1.199   1.199   1.199   1.199   1.199   1.199   1.199   1.199   1.199   1.199   1.199   1.199   1.199   1.199   1.199   1.199   1.199   1.199   1.199   1.199   1.199   1.199   1.199   1.199   1.199   1.199   1.199   1.199   1.199   1.199   1.199   1.199   1.199   1.199   1.199   1.199   1.199   1.199   1.199   1.199   1.199   1.199   1.199   1.199   1.199   1.199   1.199   1.199   1.199   1.199   1.199   1.199   1.199   1.199   1.199   1.199   1.199   1.199   1.199   1.199   1.199   1.199   1.199   1.199   1.199   1.199   1.199   1.199   1.199   1.199   1.199   1.199   1.199   1.199   1.199   1.199   1.199   1.199   1.199   1.199
[...]
   144.83    0.781   0.781   0.781   0.781   0.781   0.781   0.781   0.781   0.781   0.781   0.781   0.781   0.781   0.781   0.781   0.781   0.781   0.781   0.781   0.781   0.781   0.781   0.781   0.781   0.781   0.781   0.781   0.781   0.781   0.781   0.781   0.781   0.781   0.781   0.781   0.781   0.781   0.781   0.781   0.781   0.781   0.781   0.781   0.781   0.781   0.781   0.781   0.781   0.781   0.781   0.781   0.781   0.781   0.781   0.781   0.781   0.781   0.781   0.781   0.781   0.781   0.781   0.781   0.781   0.781   0.781   0.781   0.781   0.781   0.781   0.781   0.781   0.781   0.781   0.781   0.781   0.781   0.781   0.781   0.781   0.781   0.781   0.781   0.781   0.781   0.781   0.781   0.781   0.781   0.781   0.781   0.781   0.781   0.781   0.781   0.781   0.781   0.781   0.781   0.781   0.781   0.781   0.781   0.781   0.781   0.781   0.781   0.781   0.781   0.781   0.781   0.781   0.781   0.781   0.781   0.781   0.781   0.781   0.781   0.781   0.781   0.781   0.781   0.781   0.781   0.781   0.781   0.781   0.781   0.781   0.781   0.781   0.781   0.781   0.781   0.781   0.781   0.781   0.781   0.781   0.781   0.781   0.781   0.781   0.781   0.781   0.781   0.781   0.781   0.781   0.781   0.781   0.781   0.781   0.781   0.781   0.781   0.781   0.781   0.781
   134.48    0.781   0.781   0.781   0.781   0.781   0.781   0.781   0.781   0.781   0.781   0.781   0.781   0.781   0.781   0.781   0.781   0.781   0.781   0.781   0.781   0.781   0.781   0.781   0.781   0.781   0.781   0.781   0.781   0.781   0.781   0.781   0.781   0.781   0.781   0.781   0.781   0.781   0.781   0.781   0.781   0.781   0.781   0.781   0.781   0.781   0.781   0.781   0.781   0.781   0.781   0.781   0.781   0.781   0.781   0.781   0.781   0.781   0.781   0.781   0.781   0.781   0.781   0.781   0.781   0.781   0.781   0.781   0.781   0.781   0.781   0.781   0.781   0.781   0.781   0.781   0.781   0.781   0.781   0.781   0.781   0.781   0.781   0.781   0.781   0.781   0.781   0.781   0.781   0.781   0.781   0.781   0.781   0.781   0.781   0.781   0.781   0.781   0.781   0.781   0.781   0.781   0.781   0.781   0.781   0.781   0.781   0.781   0.781   0.781   0.781   0.781   0.781   0.781   0.781   0.781   0.781   0.781   0.781   0.781   0.781   0.781   0.781   0.781   0.781   0.781   0.781   0.781   0.781   0.781   0.781   0.781   0.781   0.781   0.781   0.781   0.781   0.781   0.781   0.781   0.781   0.781   0.781   0.781   0.781   0.781   0.781   0.781   0.781   0.781   0.781   0.781   0.781   0.781   0.781   0.781   0.781   0.781   0.781   0.781   0.781
   124.14    0.781   0.781   0.781   0.781   0.781   0.781   0.781   0.781   0.781   0.781   0.781   0.781   0.781   0.781   0.781   0.781   0.781   0.781   0.781   0.781   0.781   0.781   0.781   0.781   0.781   0.781   0.781   0.781   0.781   0.781   0.781   0.781   0.781   0.781   0.781   0.781   0.781   0.781   0.781   0.781   0.781   0.781   0.781   0.781   0.781   0.781   0.781   0.781   0.781   0.781   0.781   0.781   0.781   0.781   0.781   0.781   0.781   0.781   0.781   0.781   0.781   0.781   0.781   0.781   0.781   0.781   0.781   0.781   0.781   0.781   0.781   0.781   0.781   0.781   0.781   0.781   0.781   0.781   0.781   0.781   0.781   0.781   0.781   0.781   0.781   0.781   0.781   0.781   0.781   0.781   0.781   0.781   0.781   0.781   0.781   0.781   0.781   0.781   0.781   0.781   0.781   0.781   0.781   0.781   0.781   0.781   0.781   0.781   0.781   0.781   0.781   0.781   0.781   0.781   0.781   0.781   0.781   0.781   0.781   0.781   0.781   0.781   0.781   0.781   0.781   0.781   0.781   0.781   0.781   0.781   0.781   0.781   0.781   0.781   0.781   0.781   0.781   0.781   0.781   0.781   0.781   0.781   0.781   0.781   0.781   0.781   0.781   0.781   0.781   0.781   0.781   0.781   0.781   0.781   0.781   0.781   0.781   0.781   0.781   0.781
   113.79    0.781   0.781   0.781   0.781   0.781   0.781   0.781   0.781   0.781   0.781   0.781   0.781   0.781   0.781   0.781   0.781   0.781   0.781   0.781   0.781   0.781   0.781   0.781   0.781   0.781   0.781   0.781   0.781   0.781   0.781   0.781   0.781   0.781   0.781   0.781   0.781   0.781   0.781   0.781   0.781   0.781   0.781   0.781   0.781   0.781   0.781   0.781   0.781   0.781   0.781   0.781   0.781   0.781   0.781   0.781   0.781   0.781   0.781   0.781   0.781   0.781   0.781   0.781   0.781   0.781   0.781   0.781   0.781   0.781   0.781   0.781   0.781   0.781   0.781   0.781   0.781   0.781   0.781   0.781   0.781   0.781   0.781   0.781   0.781   0.781   0.781   0.781   0.781   0.781   0.781   0.781   0.781   0.781   0.781   0.781   0.781   0.781   0.781   0.781   0.781   0.781   0.781   0.781   0.781   0.781   0.781   0.781   0.781   0.781   0.781   0.781   0.781   0.781   0.781   0.781   0.781   0.781   0.781   0.781   0.781   0.781   0.781   0.781   0.781   0.781   0.781   0.781   0.781   0.781   0.781   0.781   0.781   0.781   0.781   0.781   0.781   0.781   0.781   0.781   0.781   0.781   0.781   0.781   0.781   0.781   0.781   0.781   0.781   0.781   0.781   0.781   0.781   0.781   0.781   0.781   0.781   0.781   0.781   0.781   0.781
   103.45    0.781   0.781   0.781   0.781   0.781   0.781   0.781   0.781   0.781   0.781   0.781   0.781   0.781   0.781   0.781   0.781   0.781   0.781   0.781   0.781   0.781   0.781   0.781   0.781   0.781   0.781   0.781   0.781   0.781   0.781   0.781   0.781   0.781   0.781   0.781   0.781   0.781   0.781   0.781   0.781   0.781   0.781   0.781   0.781   0.781   0.781   0.781   0.781   0.781   0.781   0.781   0.781   0.781   0.781   0.781   0.781   0.781   0.781   0.781   0.781   0.781   0.781   0.781   0.781   0.781   0.781   0.781   0.781   0.781   0.781   0.781   0.781   0.781   0.781   0.781   0.781   0.781   0.781   0.781   0.781   0.781   0.781   0.781   0.781   0.781   0.781   0.781   0.781   0.781   0.781   0.781   0.781   0.781   0.781   0.781   0.781   0.781   0.781   0.781   0.781   0.781   0.781   0.781   0.781   0.781   0.781   0.781   0.781   0.781   0.781   0.781   0.781   0.781   0.781   0.781   0.781   0.781   0.781   0.781   0.781   0.781   0.781   0.781   0.781   0.781   0.781   0.781   0.781   0.781   0.781   0.781   0.781   0.781   0.781   0.781   0.781   0.781   0.781   0.781   0.781   0.781   0.781   0.781   0.781   0.781   0.781   0.781   0.781   0.781   0.781   0.781   0.781   0.781   0.781   0.781   0.781   0.781   0.781   0.781   0.781
    93.10    0.781   0.781   0.781   0.781   0.781   0.781   0.781   0.781   0.781   0.781   0.781   0.781   0.781   0.781   0.781   0.781   0.781   0.781   0.781   0.781   0.781   0.781   0.781   0.781   0.781   0.781   0.781   0.781   0.781   0.781   0.781   0.781   0.781   0.781   0.781   0.781   0.781   0.781   0.781   0.781   0.781   0.781   0.781   0.781   0.781   0.781   0.781   0.781   0.781   0.781   0.781   0.781   0.781   0.781   0.781   0.781   0.781   0.781   0.781   0.781   0.781   0.781   0.781   0.781   0.781   0.781   0.781   0.781   0.781   0.781   0.781   0.781   0.781   0.781   0.781   0.781   0.781   0.781   0.781   0.781   0.781   0.781   0.781   0.781   0.781   0.781   0.781   0.781   0.781   0.781   0.781   0.781   0.781   0.781   0.781   0.781   0.781   0.781   0.781   0.781   0.781   0.781   0.781   0.781   0.781   0.781   0.781   0.781   0.781   0.781   0.781   0.781   0.781   0.781   0.781   0.781   0.781   0.781   0.781   0.781   0.781   0.781   0.781   0.781   0.781   0.781   0.781   0.781   0.781   0.781   0.781   0.781   0.781   0.781   0.781   0.781   0.781   0.781   0.781   0.781   0.781   0.781   0.781   0.781   0.781   0.781   0.781   0.781   0.781   0.781   0.781   0.781   0.781   0.781   0.781   0.781   0.781   0.781   0.781   0.781
    82.76    0.781   0.781   0.781   0.781   0.781   0.781   0.781   0.781   0.781   0.781   0.781   0.781   0.781   0.781   0.781   0.781   0.781   0.781   0.781   0.781   0.781   0.781   0.781   0.781   0.781   0.781   0.781   0.781   0.781   0.781   0.781   0.781   0.781   0.781   0.781   0.781   0.781   0.781   0.781   0.781   0.781   0.781   0.781   0.781   0.781   0.781   0.781   0.781   0.781   0.781   0.781   0.781   0.781   0.781   0.781   0.781   0.781   0.781   0.781   0.781   0.781   0.781   0.781   0.781   0.781   0.781   0.781   0.781   0.781   0.781   0.781   0.781   0.781   0.781   0.781   0.781   0.781   0.781   0.781   0.781   0.781   0.781   0.781   0.781   0.781   0.781   0.781   0.781   0.781   0.781   0.781   0.781   0.781   0.781   0.781   0.781   0.781   0.781   0.781   0.781   0.781   0.781   0.781   0.781   0.781   0.781   0.781   0.781   0.781   0.781   0.781   0.781   0.781   0.781   0.781   0.781   0.781   0.781   0.781   0.781   0.781   0.781   0.781   0.781   0.781   0.781   0.781   0.781   0.781   0.781   0.781   0.781   0.781   0.781   0.781   0.781   0.781   0.781   0.781   0.781   0.781   0.781   0.781   0.781   0.781   0.781   0.781   0.781   0.781   0.781   0.781   0.781   0.781   0.781   0.781   0.781   0.781   0.781   0.781   0.781
    72.41    0.781   0.781   0.781   0.781   0.781   0.781   0.781   0.781   0.781   0.781   0.781   0.781   0.781   0.781   0.781   0.781   0.781   0.781   0.781   0.781   0.781   0.781   0.781   0.781   0.781   0.781   0.781   0.781   0.781   0.781   0.781   0.781   0.781   0.781   0.781   0.781   0.781   0.781   0.781   0.781   0.781   0.781   0.781   0.781   0.781   0.781   0.781   0.781   0.781   0.781   0.781   0.781   0.781   0.781   0.781   0.781   0.781   0.781   0.781   0.781   0.781   0.781   0.781   0.781   0.781   0.781   0.781   0.781   0.781   0.781   0.781   0.781   0.781   0.781   0.781   0.781   0.781   0.781   0.781   0.781   0.781   0.781   0.781   0.781   0.781   0.781   0.781   0.781   0.781   0.781   0.781   0.781   0.781   0.781   0.781   0.781   0.781   0.781   0.781   0.781   0.781   0.781   0.781   0.781   0.781   0.781   0.781   0.781   0.781   0.781   0.781   0.781   0.781   0.781   0.781   0.781   0.781   0.781   0.781   0.781   0.781   0.781   0.781   0.781   0.781   0.781   0.781   0.781   0.781   0.781   0.781   0.781   0.781   0.781   0.781   0.781   0.781   0.781   0.781   0.781   0.781   0.781   0.781   0.781   0.781   0.781   0.781   0.781   0.781   0.781   0.781   0.781   0.781   0.781   0.781   0.781   0.781   0.781   0.781   0.781
    62.07    0.781   0.781   0.781   0.781   0.781   0.781   0.781   0.781   0.781   0.781   0.781   0.781   0.781   0.781   0.781   0.781   0.781   0.781   0.781   0.781   0.781   0.781   0.781   0.781   0.781   0.781   0.781   0.781   0.781   0.781   0.781   0.781   0.781   0.781   0.781   0.781   0.781   0.781   0.781   0.781   0.781   0.781   0.781   0.781   0.781   0.781   0.781   0.781   0.781   0.781   0.781   0.781   0.781   0.781   0.781   0.781   0.781   0.781   0.781   0.781   0.781   0.781   0.781   0.781   0.781   0.781   0.781   0.781   0.781   0.781   0.781   0.781   0.781   0.781   0.781   0.781   0.781   0.781   0.781   0.781   0.781   0.781   0.781   0.781   0.781   0.781   0.781   0.781   0.781   0.781   0.781   0.781   0.781   0.781   0.781   0.781   0.781   0.781   0.781   0.781   0.781   0.781   0.781   0.781   0.781   0.781   0.781   0.781   0.781   0.781   0.781   0.781   0.781   0.781   0.781   0.781   0.781   0.781   0.781   0.781   0.781   0.781   0.781   0.781   0.781   0.781   0.781   0.781   0.781   0.781   0.781   0.781   0.781   0.781   0.781   0.781   0.781   0.781   0.781   0.781   0.781   0.781   0.781   0.781   0.781   0.781   0.781   0.781   0.781   0.781   0.781   0.781   0.781   0.781   0.781   0.781   0.781   0.781   0.781   0.781
    51.72    0.781   0.781   0.781   0.781   0.781   0.781   0.781   0.781   0.781   0.781   0.781   0.781   0.781   0.781   0.781   0.781   0.781   0.781   0.781   0.781   0.781   0.781   0.781   0.781   0.781   0.781   0.781   0.781   0.781   0.781   0.781   0.781   0.781   0.781   0.781   0.781   0.781   0.781   0.781   0.781   0.781   0.781   0.781   0.781   0.781   0.781   0.781   0.781   0.781   0.781   0.781   0.781   0.781   0.781   0.781   0.781   0.781   0.781   0.781   0.781   0.781   0.781   0.781   0.781   0.781   0.781   0.781   0.781   0.781   0.781   0.781   0.781   0.781   0.781   0.781   0.781   0.781   0.781   0.781   0.781   0.781   0.781   0.781   0.781   0.781   0.781   0.781   0.781   0.781   0.781   0.781   0.781   0.781   0.781   0.781   0.781   0.781   0.781   0.781   0.781   0.781   0.781   0.781   0.781   0.781   0.781   0.781   0.781   0.781   0.781   0.781   0.781   0.781   0.781   0.781   0.781   0.781   0.781   0.781   0.781   0.781   0.781   0.781   0.781   0.781   0.781   0.781   0.781   0.781   0.781   0.781   0.781   0.781   0.781   0.781   0.781   0.781   0.781   0.781   0.781   0.781   0.781   0.781   0.781   0.781   0.781   0.781   0.781   0.781   0.781   0.781   0.781   0.781   0.781   0.781   0.781   0.781   0.781   0.781   0.781
    41.38    0.781   0.781   0.781   0.781   0.781   0.781   0.781   0.781   0.781   0.781   0.781   0.781   0.781   0.781   0.781   0.781   0.781   0.781   0.781   0.781   0.781   0.781   0.781   0.781   0.781   0.781   0.781   0.781   0.781   0.781   0.781   0.781   0.781   0.781   0.781   0.781   0.781   0.781   0.781   0.781   0.781   0.781   0.781   0.781   0.781   0.781   0.781   0.781   0.781   0.781   0.781   0.781   0.781   0.781   0.781   0.781   0.781   0.781   0.781   0.781   0.781   0.781   0.781   0.781   0.781   0.781   0.781   0.781   0.781   0.781   0.781   0.781   0.781   0.781   0.781   0.781   0.781   0.781   0.781   0.781   0.781   0.781   0.781   0.781   0.781   0.781   0.781   0.781   0.781   0.781   0.781   0.781   0.781   0.781   0.781   0.781   0.781   0.781   0.781   0.781   0.781   0.781   0.781   0.781   0.781   0.781   0.781   0.781   0.781   0.781   0.781   0.781   0.781   0.781   0.781   0.781   0.781   0.781   0.781   0.781   0.781   0.781   0.781   0.781   0.781   0.781   0.781   0.781   0.781   0.781   0.781   0.781   0.781   0.781   0.781   0.781   0.781   0.781   0.781   0.781   0.781   0.781   0.781   0.781   0.781   0.781   0.781   0.781   0.781   0.781   0.781   0.781   0.781   0.781   0.781   0.781   0.781   0.781   0.781   0.781
    31.03    0.781   0.781   0.781   0.781   0.781   0.781   0.781   0.781   0.781   0.781   0.781   0.781   0.781   0.781   0.781   0.781   0.781   0.781   0.781   0.781   0.781   0.781   0.781   0.781   0.781   0.781   0.781   0.781   0.781   0.781   0.781   0.781   0.781   0.781   0.781   0.781   0.781   0.781   0.781   0.781   0.781   0.781   0.781   0.781   0.781   0.781   0.781   0.781   0.781   0.781   0.781   0.781   0.781   0.781   0.781   0.781   0.781   0.781   0.781   0.781   0.781   0.781   0.781   0.781   0.781   0.781   0.781   0.781   0.781   0.781   0.781   0.781   0.781   0.781   0.781   0.781   0.781   0.781   0.781   0.781   0.781   0.781   0.781   0.781   0.781   0.781   0.781   0.781   0.781   0.781   0.781   0.781   0.781   0.781   0.781   0.781   0.781   0.781   0.781   0.781   0.781   0.781   0.781   0.781   0.781   0.781   0.781   0.781   0.781   0.781   0.781   0.781   0.781   0.781   0.781   0.781   0.781   0.781   0.781   0.781   0.781   0.781   0.781   0.781   0.781   0.781   0.781   0.781   0.781   0.781   0.781   0.781   0.781   0.781   0.781   0.781   0.781   0.781   0.781   0.781   0.781   0.781   0.781   0.781   0.781   0.781   0.781   0.781   0.781   0.781   0.781   0.781   0.781   0.781   0.781   0.781   0.781   0.781   0.781   0.781
    20.69    0.781   0.781   0.781   0.781   0.781   0.781   0.781   0.781   0.781   0.781   0.781   0.781   0.781   0.781   0.781   0.781   0.781   0.781   0.781   0.781   0.781   0.781   0.781   0.781   0.781   0.781   0.781   0.781   0.781   0.781   0.781   0.781   0.781   0.781   0.781   0.781   0.781   0.781   0.781   0.781   0.781   0.781   0.781   0.781   0.781   0.781   0.781   0.781   0.781   0.781   0.781   0.781   0.781   0.781   0.781   0.781   0.781   0.781   0.781   0.781   0.781   0.781   0.781   0.781   0.781   0.781   0.781   0.781   0.781   0.781   0.781   0.781   0.781   0.781   0.781   0.781   0.781   0.781   0.781   0.781   0.781   0.781   0.781   0.781   0.781   0.781   0.781   0.781   0.781   0.781   0.781   0.781   0.781   0.781   0.781   0.781   0.781   0.781   0.781   0.781   0.781   0.781   0.781   0.781   0.781   0.781   0.781   0.781   0.781   0.781   0.781   0.781   0.781   0.781   0.781   0.781   0.781   0.781   0.781   0.781   0.781   0.781   0.781   0.781   0.781   0.781   0.781   0.781   0.781   0.781   0.781   0.781   0.781   0.781   0.781   0.781   0.781   0.781   0.781   0.781   0.781   0.781   0.781   0.781   0.781   0.781   0.781   0.781   0.781   0.781   0.781   0.781   0.781   0.781   0.781   0.781   0.781   0.781   0.781   0.781
    10.34    0.781   0.781   0.781   0.781   0.781   0.781   0.781   0.781   0.781   0.781   0.781   0.781   0.781   0.781   0.781   0.781   0.781   0.781   0.781   0.781   0.781   0.781   0.781   0.781   0.781   0.781   0.781   0.781   0.781   0.781   0.781   0.781   0.781   0.781   0.781   0.781   0.781   0.781   0.781   0.781   0.781   0.781   0.781   0.781   0.781   0.781   0.781   0.781   0.781   0.781   0.781   0.781   0.781   0.781   0.781   0.781   0.781   0.781   0.781   0.781   0.781   0.781   0.781   0.781   0.781   0.781   0.781   0.781   0.781   0.781   0.781   0.781   0.781   0.781   0.781   0.781   0.781   0.781   0.781   0.781   0.781   0.781   0.781   0.781   0.781   0.781   0.781   0.781   0.781   0.781   0.781   0.781   0.781   0.781   0.781   0.781   0.781   0.781   0.781   0.781   0.781   0.781   0.781   0.781   0.781   0.781   0.781   0.781   0.781   0.781   0.781   0.781   0.781   0.781   0.781   0.781   0.781   0.781   0.781   0.781   0.781   0.781   0.781   0.781   0.781   0.781   0.781   0.781   0.781   0.781   0.781   0.781   0.781   0.781   0.781   0.781   0.781   0.781   0.781   0.781   0.781   0.781   0.781   0.781   0.781   0.781   0.781   0.781   0.781   0.781   0.781   0.781   0.781   0.781   0.781   0.781   0.781   0.781   0.781   0.781
     0.00    0.781   0.781   0.781   0.781   0.781   0.781   0.781   0.781   0.781   0.781   0.781   0.781   0.781   0.781   0.781   0.781   0.781   0.781   0.781   0.781   0.781   0.781   0.781   0.781   0.781   0.781   0.781   0.781   0.781   0.781   0.781   0.781   0.781   0.781   0.781   0.781   0.781   0.781   0.781   0.781   0.781   0.781   0.781   0.781   0.781   0.781   0.781   0.781   0.781   0.781   0.781   0.781   0.781   0.781   0.781   0.781   0.781   0.781   0.781   0.781   0.781   0.781   0.781   0.781   0.781   0.781   0.781   0.781   0.781   0.781   0.781   0.781   0.781   0.781   0.781   0.781   0.781   0.781   0.781   0.781   0.781   0.781   0.781   0.781   0.781   0.781   0.781   0.781   0.781   0.781   0.781   0.781   0.781   0.781   0.781   0.781   0.781   0.781   0.781   0.781   0.781   0.781   0.781   0.781   0.781   0.781   0.781   0.781   0.781   0.781   0.781   0.781   0.781   0.781   0.781   0.781   0.781   0.781   0.781   0.781   0.781   0.781   0.781   0.781   0.781   0.781   0.781   0.781   0.781   0.781   0.781   0.781   0.781   0.781   0.781   0.781   0.781   0.781   0.781   0.781   0.781   0.781   0.781   0.781   0.781   0.781   0.781   0.781   0.781   0.781   0.781   0.781   0.781   0.781   0.781   0.781   0.781   0.781   0.781   0.781

   Mean standard deviation across all grid points:
      u component:    1.192 m/s
      v component:    1.199 m/s
      w component:    0.781 m/s


U-component (X) statistics from the interpolated hub point:

   Mean =   7.6768 m/s
   TI   =  12.7109 %


Processing complete.  48.922 CPU seconds used.
