
This summary file was generated by TurbSim (from OpenFAST-v4.1.2) on 22-Feb-2026 at 19:18:19.


Runtime Options:

1882816100  Random seed #1
    RANLUX  Type of random number generator
         F  Output binary HH turbulence parameters?
         F  Output formatted turbulence parameters?
         F  Output AeroDyn HH files?
         T  Output AeroDyn FF files?
         F  Output BLADED FF files?
         F  Output tower data?
         F  Output HAWC FF files?
         T  Output formatted FF files?
         F  Output coherent turbulence time step file?
 0 -  NONE  IEC turbulence models scaled to exact specified standard deviation


Turbine/Model Specifications:

        60  Vertical grid-point matrix dimension
       230  Horizontal grid-point matrix dimension
     1.000  Time step [seconds]
    90.000  Analysis time [seconds]
    90.000  Usable output time [seconds]
   150.000  Hub height [m]
   300.000  Grid height [m]
  1152.000  Grid width [m]
     0.000  Vertical flow angle [degrees]
     8.000  Horizontal flow angle [degrees]


Meteorological Boundary Conditions:

    IECKAI  IEC Kaimal spectral model
         1  IEC standard: IEC 61400-1 Ed. 3: 2005
         A  IEC turbulence characteristic
       NTM  IEC Normal Turbulence Model
       N/A  IEC Extreme Turbulence Model (ETM) "c" parameter [m/s]
       PL   Wind profile type
    90.000  Reference height [m]
     7.000  Reference wind speed [m/s]
       N/A  Jet height [m]
     0.200  Power law exponent
     0.030  Surface roughness length [m]


Non-IEC Meteorological Boundary Conditions:

       N/A  Site latitude [degrees]
       N/A  Gradient Richardson number
       N/A  Friction or shear velocity [m/s]
       N/A  Mixing layer depth [m]
       N/A  Mean hub u'w' Reynolds stress
       N/A  Mean hub u'v' Reynolds stress
       N/A  Mean hub v'w' Reynolds stress


Spatial Coherence Models:

       IEC  u-component coherence model
      NONE  v-component coherence model
      NONE  w-component coherence model
(   12.000, 0.353E-03)  u-component coherence parameters
                   N/A  v-component coherence parameters
                   N/A  w-component coherence parameters
       N/A  Coherence exponent


You have requested that the following file(s) be generated:

   Generator_Ambient/TurbSim1.bts (AeroDyn/TurbSim full-field wind file)
   Generator_Ambient/TurbSim1.u (formatted full-field U-component file)
   Generator_Ambient/TurbSim1.v (formatted full-field V-component file)
   Generator_Ambient/TurbSim1.w (formatted full-field W-component file)


Turbulence Simulation Scaling Parameter Summary:

   Turbulence model used                            =  IEC Kaimal
   Turbulence characteristic                        =  A
   IEC turbulence type                              =  Normal Turbulence Model
   IEC standard                                     =  IEC 61400-1 Ed. 3: 2005
   Mean wind speed at hub height                    =    7.753 m/s
   Expected value of turbulence intensity at 15 m/s =   16.000%
   Characteristic value of standard deviation       =    1.826 m/s
   Turbulence scale                                 =   42.000 m
   u-component integral scale                       =  340.200 m
   Coherency scale                                  =  340.200 m
   Characteristic value of hub turbulence intensity =   23.557%
   Gradient Richardson number                       =    0.000

   Wind profile type                                =  Power law
   Power law exponent                               =    0.200
   Mean shear across rotor disk                     =    0.030 (m/s)/m
   Assumed rotor diameter                           =  300.000 m
   Surface roughness length                         =    0.030 m

   Nyquist frequency of turbulent wind field        =    0.500 Hz

   Number of time steps in the FFT                  =       90
   Number of time steps output                      =       90
   Number of points simulated                       =    13801


Mean Flow Angles:

   Vertical   =   0.0 degrees
   Horizontal =   8.0 degrees

Mean Wind Speed Profile:

   Height    Wind Speed   Horizontal Angle  Vertical Angle  U-comp (X)   V-comp (Y)   W-comp (Z)
     (m)        (m/s)         (degrees)       (degrees)       (m/s)        (m/s)        (m/s)   
   ------    ----------   ----------------  --------------  ----------   ----------   ----------
    300.0        8.91            8.00            0.00          8.82         1.24         0.00
    294.9        8.88            8.00            0.00          8.79         1.24         0.00
    289.8        8.84            8.00            0.00          8.76         1.23         0.00
    284.7        8.81            8.00            0.00          8.73         1.23         0.00
    279.7        8.78            8.00            0.00          8.70         1.22         0.00
    274.6        8.75            8.00            0.00          8.66         1.22         0.00
    269.5        8.72            8.00            0.00          8.63         1.21         0.00
    264.4        8.68            8.00            0.00          8.60         1.21         0.00
    259.3        8.65            8.00            0.00          8.57         1.20         0.00
    254.2        8.62            8.00            0.00          8.53         1.20         0.00
    249.2        8.58            8.00            0.00          8.50         1.19         0.00
    244.1        8.55            8.00            0.00          8.46         1.19         0.00
    239.0        8.51            8.00            0.00          8.43         1.18         0.00
    233.9        8.47            8.00            0.00          8.39         1.18         0.00
    228.8        8.44            8.00            0.00          8.35         1.17         0.00
    223.7        8.40            8.00            0.00          8.32         1.17         0.00
    218.6        8.36            8.00            0.00          8.28         1.16         0.00
    213.6        8.32            8.00            0.00          8.24         1.16         0.00
    208.5        8.28            8.00            0.00          8.20         1.15         0.00
    203.4        8.24            8.00            0.00          8.16         1.15         0.00
    198.3        8.20            8.00            0.00          8.12         1.14         0.00
    193.2        8.16            8.00            0.00          8.08         1.14         0.00
    188.1        8.11            8.00            0.00          8.03         1.13         0.00
    183.1        8.07            8.00            0.00          7.99         1.12         0.00
    178.0        8.02            8.00            0.00          7.94         1.12         0.00
    172.9        7.98            8.00            0.00          7.90         1.11         0.00
    167.8        7.93            8.00            0.00          7.85         1.10         0.00
    162.7        7.88            8.00            0.00          7.80         1.10         0.00
    157.6        7.83            8.00            0.00          7.75         1.09         0.00
    152.5        7.78            8.00            0.00          7.70         1.08         0.00
    150.0        7.75            8.00            0.00          7.68         1.08         0.00
    147.5        7.73            8.00            0.00          7.65         1.08         0.00
    142.4        7.67            8.00            0.00          7.60         1.07         0.00
    137.3        7.62            8.00            0.00          7.54         1.06         0.00
    132.2        7.56            8.00            0.00          7.49         1.05         0.00
    127.1        7.50            8.00            0.00          7.43         1.04         0.00
    122.0        7.44            8.00            0.00          7.37         1.04         0.00
    116.9        7.38            8.00            0.00          7.30         1.03         0.00
    111.9        7.31            8.00            0.00          7.24         1.02         0.00
    106.8        7.24            8.00            0.00          7.17         1.01         0.00
    101.7        7.17            8.00            0.00          7.10         1.00         0.00
     96.6        7.10            8.00            0.00          7.03         0.99         0.00
     91.5        7.02            8.00            0.00          6.96         0.98         0.00
     86.4        6.94            8.00            0.00          6.88         0.97         0.00
     81.4        6.86            8.00            0.00          6.79         0.95         0.00
     76.3        6.77            8.00            0.00          6.71         0.94         0.00
     71.2        6.68            8.00            0.00          6.61         0.93         0.00
     66.1        6.58            8.00            0.00          6.52         0.92         0.00
     61.0        6.48            8.00            0.00          6.41         0.90         0.00
     55.9        6.36            8.00            0.00          6.30         0.89         0.00
     50.8        6.24            8.00            0.00          6.18         0.87         0.00
     45.8        6.11            8.00            0.00          6.05         0.85         0.00
     40.7        5.97            8.00            0.00          5.91         0.83         0.00
     35.6        5.81            8.00            0.00          5.76         0.81         0.00
     30.5        5.64            8.00            0.00          5.58         0.78         0.00
     25.4        5.44            8.00            0.00          5.38         0.76         0.00
     20.3        5.20            8.00            0.00          5.15         0.72         0.00
     15.3        4.91            8.00            0.00          4.86         0.68         0.00
     10.2        4.53            8.00            0.00          4.48         0.63         0.00
      5.1        3.94            8.00            0.00          3.90         0.55         0.00
      0.0        0.45            8.00            0.00          0.45         0.06         0.00


Harvested Random Seeds after Generation of the Random Numbers:

     17311505 K 1
            0 K 2


Hub-Height Simulated Turbulence Statistical Summary:

   Type of Wind        Min (m/s)   Mean (m/s)    Max (m/s)  Sigma (m/s)       TI (%)
   ----------------    ---------   ----------    ---------  -----------       ------
   Longitudinal (u)         5.39         7.75        10.53        1.083       13.968
   Lateral (v)             -2.38         0.00         2.42        1.199       15.470
   Vertical (w)            -1.50        -0.00         2.00        0.781       10.068
   U component              5.07         7.68        10.44        1.163       15.146
   V component             -1.37         1.08         3.51        1.122       14.615
   W component             -1.50        -0.00         2.00        0.781       10.167
   Horizontal (U&V)         5.71         7.85        10.53        1.058       13.476
   Total                    5.74         7.89        10.55        1.053       13.343

                       Min Reynolds     Mean Reynolds    Max Reynolds    Correlation
   Product             Stress (m/s)^2   Stress (m/s)^2   Stress (m/s)^2  Coefficient
   ----------------    --------------   --------------   --------------  -----------
   u'w'                     -3.265             0.013             2.223         0.016
   u'v'                     -4.477            -0.632             2.068        -0.487
   v'w'                     -3.125            -0.245             2.514        -0.262


   Friction Velocity (Ustar)  =      0.116 m/s
   Maximum Instantaneous TKE  =      4.759 (m/s)^2
   Maximum Instantaneous CTKE =      2.407 (m/s)^2


Grid Point Variance Summary:

   Y-coord -576.00 -570.97 -565.94 -560.91 -555.88 -550.85 -545.82 -540.79 -535.76 -530.72 -525.69 -520.66 -515.63 -510.60 -505.57 -500.54 -495.51 -490.48 -485.45 -480.42 -475.39 -470.36 -465.33 -460.30 -455.27 -450.24 -445.21 -440.17 -435.14 -430.11 -425.08 -420.05 -415.02 -409.99 -404.96 -399.93 -394.90 -389.87 -384.84 -379.81 -374.78 -369.75 -364.72 -359.69 -354.66 -349.62 -344.59 -339.56 -334.53 -329.50 -324.47 -319.44 -314.41 -309.38 -304.35 -299.32 -294.29 -289.26 -284.23 -279.20 -274.17 -269.14 -264.10 -259.07 -254.04 -249.01 -243.98 -238.95 -233.92 -228.89 -223.86 -218.83 -213.80 -208.77 -203.74 -198.71 -193.68 -188.65 -183.62 -178.59 -173.55 -168.52 -163.49 -158.46 -153.43 -148.40 -143.37 -138.34 -133.31 -128.28 -123.25 -118.22 -113.19 -108.16 -103.13  -98.10  -93.07  -88.03  -83.00  -77.97  -72.94  -67.91  -62.88  -57.85  -52.82  -47.79  -42.76  -37.73  -32.70  -27.67  -22.64  -17.61  -12.58   -7.55   -2.52    2.52    7.55   12.58   17.61   22.64   27.67   32.70   37.73   42.76   47.79   52.82   57.85   62.88   67.91   72.94   77.97   83.00   88.03   93.07   98.10  103.13  108.16  113.19  118.22  123.25  128.28  133.31  138.34  143.37  148.40  153.43  158.46  163.49  168.52  173.55  178.59  183.62  188.65  193.68  198.71  203.74  208.77  213.80  218.83  223.86  228.89  233.92  238.95  243.98  249.01  254.04  259.07  264.10  269.14  274.17  279.20  284.23  289.26  294.29  299.32  304.35  309.38  314.41  319.44  324.47  329.50  334.53  339.56  344.59  349.62  354.66  359.69  364.72  369.75  374.78  379.81  384.84  389.87  394.90  399.93  404.96  409.99  415.02  420.05  425.08  430.11  435.14  440.17  445.21  450.24  455.27  460.30  465.33  470.36  475.39  480.42  485.45  490.48  495.51  500.54  505.57  510.60  515.63  520.66  525.69  530.72  535.76  540.79  545.82  550.85  555.88  560.91  565.94  570.97  576.00

   Height   Standard deviation at grid points for the u component:
   300.00    1.028   1.225   1.479   1.456   1.508   1.238   0.967   1.098   0.983   0.878   0.862   0.986   1.071   0.999   1.216   0.996   1.044   1.022   1.395   1.361   1.315   1.126   1.303   1.364   1.496   1.343   1.219   1.147   1.288   1.434   1.595   1.467   1.046   1.033   1.151   1.322   1.237   1.000   1.202   1.516   1.131   1.452   1.334   1.253   1.316   1.429   1.332   1.303   1.366   0.915   0.987   0.832   1.008   1.246   1.143   1.302   1.274   1.220   1.198   1.101   1.331   1.197   1.245   1.125   1.268   1.324   1.139   1.246   1.279   1.376   1.497   0.955   1.204   0.987   0.928   1.020   1.063   1.120   1.373   0.986   1.340   1.498   1.323   1.471   1.554   1.655   1.714   1.867   1.897   1.510   1.657   1.891   1.805   1.656   1.954   1.838   1.626   1.709   1.513   1.283   1.569   1.676   1.525   1.488   1.209   1.152   1.132   1.185   1.427   1.307   1.339   1.248   1.172   1.239   1.635   1.572   1.556   1.438   1.302   1.196   1.382   1.076   1.219   0.893   0.951   1.123   1.072   1.184   1.157   1.118   0.996   1.046   1.356   1.309   1.023   1.369   1.392   1.497   1.364   1.321   1.245   1.505   1.371   1.124   1.159   0.960   0.902   0.879   1.121   1.169   1.282   1.329   1.217   1.307   1.163   1.401   1.304   1.439   1.486   1.441   1.586   1.732   1.426   1.287   1.024   1.042   1.182   1.132   1.064   0.965   0.964   1.080   1.165   0.982   0.888   0.829   0.935   1.058   0.970   0.943   1.132   1.233   1.286   1.153   1.048   0.966   1.078   1.134   1.430   1.306   1.098   1.103   1.050   0.989   1.028   1.053   0.805   0.880   0.847   1.013   0.984   0.961   0.895   0.927   0.927   1.071   1.095   0.902   0.766   1.133   1.125   1.122   1.405   1.414   1.432   1.434   1.396   1.269   1.352   1.483   1.484   1.505   1.260   1.263   1.235   1.234   1.036   1.152   1.403   1.223
   294.92    1.032   1.023   1.409   1.521   1.348   1.332   1.229   1.084   0.959   0.730   0.932   0.938   0.966   1.166   1.100   1.246   1.447   1.318   1.439   1.245   1.339   1.107   1.275   1.150   1.172   1.194   1.200   1.285   1.233   1.516   1.464   1.366   1.335   1.132   1.300   1.233   1.108   1.233   1.328   1.371   1.303   1.291   1.404   1.237   1.315   1.426   1.142   1.331   1.323   1.198   0.992   0.797   0.993   1.082   1.062   1.043   1.199   1.515   1.567   1.341   1.343   1.221   1.330   1.288   1.201   1.463   1.432   1.219   1.386   1.248   1.329   1.308   1.213   1.139   1.147   1.102   1.069   1.325   1.243   1.325   1.288   1.506   1.343   1.261   1.213   1.515   1.636   1.569   1.796   1.681   1.659   1.880   1.936   2.012   1.859   1.690   1.777   1.597   1.414   1.474   1.368   1.512   1.731   1.494   1.268   1.320   1.109   1.061   1.389   1.489   1.366   1.303   0.827   0.951   1.139   1.564   1.724   1.437   1.408   1.469   1.311   1.228   0.938   1.126   1.067   1.183   1.065   1.198   1.152   1.194   1.068   1.170   1.251   1.152   1.174   1.463   1.679   1.525   1.433   1.371   1.451   1.402   1.204   1.380   1.142   1.159   0.877   0.832   0.984   1.021   1.195   1.211   1.125   1.155   1.193   1.281   1.417   1.396   1.326   1.471   1.568   1.588   1.477   1.129   1.011   1.214   1.266   1.402   1.485   1.235   1.023   1.163   1.103   0.826   0.796   0.830   0.728   0.914   0.865   0.993   1.068   1.297   1.227   1.277   1.224   1.337   1.212   1.377   1.522   1.049   1.085   1.186   0.928   0.880   0.998   1.362   1.216   1.188   0.972   0.911   1.059   1.163   1.047   0.917   0.981   0.851   0.975   0.920   0.952   1.182   1.072   1.156   1.224   1.433   1.132   1.458   1.520   1.482   1.618   1.543   1.293   1.519   1.541   1.205   1.145   1.094   1.303   1.225   1.219   1.420
   289.83    1.297   1.293   1.388   1.432   1.101   1.373   1.403   1.286   1.140   1.129   1.047   0.847   1.153   1.119   1.245   1.284   1.435   1.203   1.025   1.290   1.094   1.280   1.256   1.294   1.235   1.439   1.247   1.225   1.164   1.544   1.741   1.552   1.538   1.639   1.491   1.202   0.943   1.218   1.414   1.202   1.124   0.855   1.174   1.404   1.503   1.347   1.272   1.349   1.162   1.251   1.125   0.970   0.871   1.051   1.015   1.303   1.286   1.600   1.557   1.157   1.422   1.299   1.343   1.707   1.525   1.612   1.514   1.259   1.535   1.462   1.539   1.394   1.470   1.623   1.475   1.511   1.417   1.433   1.244   1.371   1.439   1.443   1.273   1.344   1.194   1.572   1.739   1.658   1.906   1.614   1.937   1.538   1.646   1.889   1.816   1.902   1.600   1.719   1.487   1.340   1.386   1.519   1.393   1.592   1.566   1.405   1.040   1.226   1.162   1.267   1.287   1.071   1.086   1.041   1.145   1.312   1.371   1.302   1.283   1.079   1.448   1.433   1.163   0.883   0.801   0.960   1.055   1.114   1.199   1.047   0.898   0.924   1.022   1.187   1.412   1.333   1.734   1.796   1.528   1.176   1.252   1.226   1.118   1.336   1.370   1.234   1.089   1.023   0.909   1.230   1.282   0.955   1.230   1.001   0.862   1.246   1.461   1.383   1.089   1.471   1.517   1.430   1.044   1.401   1.105   1.345   1.553   1.565   1.436   1.333   0.922   0.933   0.857   0.801   0.804   0.900   1.042   0.977   1.005   1.116   1.057   1.265   1.118   1.332   1.373   1.094   1.242   1.074   1.112   1.166   1.152   1.010   1.146   1.007   1.225   1.419   1.376   1.373   1.187   1.092   0.987   1.106   1.076   0.871   1.084   0.981   0.880   0.722   0.985   1.047   1.220   1.482   1.507   1.544   1.430   1.223   1.195   1.257   1.415   1.277   1.268   1.257   1.447   1.240   1.258   1.100   1.317   1.276   1.211   1.424
   284.75    1.379   1.539   1.450   1.274   1.130   1.209   1.167   1.230   1.100   1.263   1.295   1.175   1.006   0.987   1.247   1.363   1.597   1.380   1.466   1.266   0.976   1.062   1.171   1.032   1.098   1.004   1.426   1.370   1.306   1.315   1.559   1.784   1.678   1.860   1.709   1.172   1.142   1.179   1.327   1.312   0.949   0.900   1.001   1.256   1.384   1.297   1.302   1.224   1.192   1.220   1.196   1.329   1.093   1.182   1.177   1.192   1.260   1.245   1.471   1.148   1.363   1.297   1.316   1.470   1.587   1.642   1.583   1.511   1.654   1.625   1.265   1.435   1.440   1.686   1.510   1.534   1.576   1.342   1.308   1.446   1.405   1.220   1.348   1.410   1.136   1.294   1.491   1.419   1.768   1.565   1.638   1.618   1.671   1.678   1.722   1.835   1.481   1.548   1.850   1.640   1.771   1.633   1.460   1.506   1.395   1.319   1.141   1.010   1.362   1.482   1.251   1.083   1.209   1.008   0.882   0.975   1.208   1.131   1.299   1.239   1.503   1.518   1.114   1.062   0.988   0.836   1.002   1.181   1.170   1.032   0.776   0.818   0.922   0.863   1.305   1.468   1.693   1.608   1.427   1.297   1.374   1.348   1.358   1.371   1.043   1.195   1.266   1.128   0.906   1.034   1.259   1.172   1.218   1.283   1.042   1.077   1.441   1.554   1.459   1.530   1.637   1.412   1.491   1.478   1.412   1.509   1.687   1.675   1.431   0.991   1.249   1.051   0.792   0.864   1.177   1.085   1.182   1.044   1.050   1.082   1.078   1.288   1.070   1.179   1.281   0.998   1.129   1.035   1.031   1.016   1.094   1.063   1.092   1.045   1.075   1.219   1.263   1.276   1.237   1.375   1.187   1.185   0.943   0.983   0.849   0.846   0.860   0.903   0.918   1.001   1.017   1.364   1.240   1.326   1.328   1.258   1.080   1.198   1.082   1.574   1.634   1.642   1.442   1.172   1.575   1.381   1.317   1.411   1.490   1.284
   279.66    1.530   1.690   1.420   1.460   1.211   1.276   1.187   1.076   0.879   1.055   1.143   0.925   1.277   1.234   1.472   1.292   1.349   1.519   1.256   1.384   1.017   0.987   1.218   1.044   0.934   1.035   1.350   1.675   1.187   1.032   1.388   1.589   1.747   1.709   1.690   1.190   1.234   1.355   1.125   1.153   1.000   0.888   1.020   1.263   1.062   1.069   1.157   1.058   1.206   1.072   0.991   1.041   1.240   1.057   1.269   1.359   1.196   1.271   1.227   1.463   1.369   1.148   1.508   1.642   1.471   1.453   1.551   1.392   1.413   1.629   1.405   1.540   1.544   1.543   1.401   1.469   1.738   1.646   1.597   1.419   1.294   1.606   1.202   1.182   1.263   1.146   1.290   1.424   1.549   1.486   1.489   1.473   1.567   1.540   1.578   1.565   1.223   1.508   1.676   1.492   1.591   1.257   1.335   1.296   1.603   1.855   1.707   1.373   1.374   1.378   1.181   1.113   1.060   1.204   1.014   0.891   0.903   1.085   1.324   1.499   1.584   1.554   1.045   0.965   1.114   1.006   0.794   0.794   0.888   0.861   0.703   0.953   1.097   1.170   1.411   1.432   1.636   1.350   1.248   1.162   1.371   1.467   1.541   1.368   1.352   1.214   1.185   0.977   1.066   1.173   1.356   1.325   1.265   1.299   1.324   1.320   1.474   1.205   1.215   1.300   1.374   1.380   1.577   1.801   1.949   1.751   1.678   1.675   1.380   1.023   1.227   1.180   1.020   0.950   1.101   1.049   0.937   1.206   1.025   1.104   0.954   1.041   1.096   1.200   0.908   1.359   1.160   1.111   1.057   1.045   1.102   1.004   1.033   0.979   1.289   1.330   1.596   1.197   1.160   1.254   1.110   1.089   0.914   1.029   1.136   0.949   0.898   0.799   0.990   0.983   0.905   1.038   1.109   1.176   1.169   1.139   1.202   1.330   1.391   1.481   1.471   1.579   1.550   1.288   1.584   1.310   1.444   1.632   1.483   1.676
   274.58    1.350   1.449   1.411   1.264   1.255   1.300   1.212   0.890   0.968   0.803   0.937   0.736   1.136   1.324   1.508   1.170   1.268   1.331   1.313   1.434   1.245   1.024   1.167   1.234   1.100   0.981   1.250   1.353   1.360   1.185   1.196   1.423   1.663   1.307   1.369   1.286   1.223   1.358   1.470   1.235   0.860   0.941   0.866   1.067   1.103   1.034   1.140   1.074   1.107   0.874   0.851   0.895   1.074   1.104   1.133   1.039   1.170   1.110   1.134   1.350   1.506   1.246   1.550   1.527   1.251   1.167   1.590   1.460   1.357   1.543   1.665   1.678   1.940   1.743   1.667   1.602   1.577   1.611   1.884   1.579   1.736   1.596   1.575   1.312   1.234   1.058   1.202   1.083   1.271   1.297   1.019   1.252   1.476   1.346   1.493   1.351   1.379   1.547   1.447   1.515   1.546   1.222   1.410   1.581   1.815   1.954   1.756   1.395   1.448   1.339   1.247   1.264   1.197   1.231   1.018   0.875   0.866   1.027   1.109   1.130   1.293   1.360   1.107   1.045   1.042   1.007   0.875   0.980   0.990   0.854   0.880   0.991   1.380   1.500   1.694   1.450   1.571   1.614   0.975   1.305   1.338   1.396   1.438   1.452   1.179   1.184   0.994   1.107   1.349   1.301   1.493   1.331   1.122   0.977   1.422   1.623   1.400   1.324   1.522   1.186   1.178   1.149   1.605   1.811   1.848   1.633   1.516   1.400   1.296   1.170   1.011   1.046   1.101   1.205   1.212   1.230   1.276   1.391   1.096   1.274   1.090   1.021   1.142   1.139   1.125   1.358   1.267   1.227   0.907   1.072   1.056   0.844   0.945   0.955   1.092   1.232   1.304   1.379   0.998   1.144   1.094   0.904   0.719   1.004   0.978   1.080   0.894   0.802   1.010   0.824   1.040   0.931   0.948   1.063   1.183   1.310   1.267   1.450   1.318   1.510   1.371   1.291   1.332   1.045   1.380   1.291   1.227   1.526   1.557   1.344
   269.49    1.307   1.065   1.170   1.386   0.945   1.042   1.027   0.899   1.103   0.998   0.901   0.862   0.995   0.989   1.286   1.362   1.402   1.129   1.234   1.298   1.392   1.300   1.321   1.375   1.206   0.942   1.218   1.301   1.101   1.186   1.030   1.202   1.401   1.435   1.074   1.078   1.110   1.164   1.229   1.227   1.290   0.990   0.724   0.755   1.184   1.188   1.175   1.097   0.973   0.909   0.797   1.193   1.180   1.220   0.992   1.004   1.010   1.018   1.257   1.324   1.408   1.482   1.494   1.633   1.290   1.248   1.381   1.403   1.511   1.664   1.771   1.877   1.824   1.848   1.949   1.957   1.942   1.663   1.830   1.730   1.728   1.348   1.235   1.023   1.244   1.259   1.335   1.153   1.116   1.116   1.436   1.289   1.557   1.607   1.724   1.773   1.490   1.338   1.558   1.586   1.391   1.489   1.506   1.270   1.490   1.686   1.612   1.479   1.213   1.108   1.082   1.259   1.154   1.187   1.307   1.304   1.094   1.094   0.736   0.984   1.020   1.181   1.193   1.346   0.927   0.968   0.858   0.988   0.967   0.812   0.936   1.039   1.331   1.610   1.504   1.474   1.380   1.283   1.047   1.381   1.551   1.604   1.576   1.686   1.393   1.165   1.048   1.259   1.256   1.443   1.273   1.385   1.290   1.485   1.557   1.523   1.558   1.520   1.474   1.354   1.441   1.340   1.591   1.549   1.696   1.818   1.802   1.167   1.149   1.324   1.063   1.232   1.155   1.225   1.255   1.248   1.344   1.218   1.252   1.349   1.138   0.935   0.993   1.071   1.166   1.312   1.369   0.988   0.989   0.837   1.164   0.947   1.044   1.161   1.421   1.386   1.251   1.134   1.342   0.945   1.237   1.175   0.789   0.983   0.804   0.873   1.073   0.954   1.092   0.963   1.014   0.929   1.257   1.303   0.989   1.083   1.255   1.248   1.306   1.257   1.013   0.896   1.089   1.044   1.228   1.273   1.378   1.638   1.816   1.768
   264.41    1.117   1.037   0.937   1.089   1.113   1.060   1.054   0.952   1.159   1.116   1.043   1.030   1.198   0.911   1.167   1.301   1.198   1.326   1.444   1.281   1.266   1.149   1.211   1.309   1.105   1.009   1.352   1.505   1.205   0.994   1.015   1.261   1.181   1.096   0.893   1.010   0.894   1.038   1.061   0.957   1.019   1.032   0.862   1.023   1.233   1.287   1.195   1.227   1.060   1.007   1.133   0.959   1.214   1.254   1.248   1.085   1.029   1.064   1.059   1.226   1.278   1.344   1.164   1.236   1.278   1.496   1.244   1.222   1.547   1.492   1.640   1.654   1.587   1.496   1.658   1.775   1.745   1.687   1.801   1.457   1.371   1.223   1.395   1.318   1.230   1.139   1.419   1.350   1.175   1.029   1.376   1.412   1.493   1.622   1.627   1.792   1.690   1.656   1.415   1.686   1.463   1.466   1.283   1.263   1.350   1.264   1.300   1.395   1.193   1.169   1.039   1.104   1.207   1.199   1.218   1.186   0.914   0.998   0.711   0.835   1.008   1.063   1.059   1.104   0.975   1.003   0.892   0.893   0.934   0.857   1.168   0.989   1.297   1.618   1.765   1.655   1.411   1.219   1.216   1.281   1.478   1.588   1.739   1.642   1.452   1.353   1.459   1.142   1.252   1.248   1.486   1.223   1.387   1.662   1.439   1.683   1.239   1.611   1.694   1.814   1.732   1.550   1.541   1.585   1.450   1.352   1.693   1.408   1.244   1.250   1.101   1.033   0.947   1.303   1.152   1.328   1.157   1.135   1.293   1.178   1.165   1.448   1.131   0.957   1.066   1.264   1.197   1.058   1.070   0.869   0.847   1.089   1.210   1.062   1.392   1.255   1.382   1.455   1.319   1.026   1.090   1.217   1.179   0.913   0.983   0.815   0.985   0.971   1.069   1.049   1.173   1.276   1.317   1.186   0.812   0.916   1.175   1.209   1.137   1.007   0.868   0.794   0.832   1.114   1.196   1.243   1.297   1.518   1.376   1.635
   259.32    1.343   1.078   1.195   1.103   0.922   0.990   1.040   1.132   1.221   1.250   1.004   1.121   1.325   1.046   1.179   1.184   1.139   1.001   1.299   1.289   1.371   1.345   1.060   1.148   1.194   1.322   1.330   1.453   1.408   0.988   0.953   0.991   0.948   1.025   0.817   0.950   0.880   0.940   1.022   1.088   1.141   0.971   0.739   1.030   1.082   1.491   1.166   1.158   1.227   1.190   1.145   1.068   1.252   1.333   1.240   1.258   1.173   1.080   1.158   1.154   1.082   1.119   1.362   1.300   1.090   1.003   1.325   1.522   1.455   1.497   1.284   1.555   1.496   1.391   1.460   1.765   2.015   1.972   1.881   1.532   1.246   1.244   1.316   1.016   1.088   1.106   1.205   1.464   1.039   1.221   1.325   1.506   1.301   1.600   1.618   1.739   1.428   1.553   1.420   1.590   1.525   1.300   1.088   1.060   1.180   1.326   1.193   1.351   1.101   1.116   1.075   1.002   0.937   0.937   0.933   1.039   0.851   1.025   0.935   0.906   1.064   1.167   1.191   1.049   0.928   1.090   0.981   1.171   0.960   1.227   1.173   1.346   1.268   1.443   1.599   1.723   1.531   1.383   1.233   1.425   1.603   1.728   1.733   1.641   1.471   1.436   1.491   1.458   1.455   1.373   1.280   1.236   1.298   1.493   1.548   1.525   1.217   1.342   1.687   1.564   1.464   1.374   1.283   1.324   1.334   1.082   1.463   1.492   1.546   1.196   1.044   1.027   1.247   1.130   1.109   1.323   1.095   1.257   1.012   1.106   1.242   1.353   1.276   1.019   1.193   1.191   1.226   1.250   1.093   0.936   1.192   1.449   1.307   1.189   1.431   1.595   1.329   1.160   0.996   1.104   1.076   0.974   1.104   1.271   1.000   1.007   0.967   0.966   0.980   1.223   1.341   0.999   1.190   1.143   0.872   0.956   1.128   0.949   0.960   0.896   1.065   0.825   0.944   1.133   1.400   1.077   1.255   1.242   1.422   1.513
   254.24    1.376   1.113   1.155   1.214   1.043   0.925   0.808   1.207   1.284   1.308   1.359   1.246   1.157   1.150   1.103   0.984   0.950   1.167   1.195   1.217   1.413   1.535   1.142   1.211   1.217   1.226   1.338   1.107   1.184   1.232   0.974   0.711   1.006   0.816   0.928   1.191   1.298   0.984   0.990   1.148   1.099   1.147   0.937   1.006   1.192   1.286   1.428   1.184   1.385   1.314   1.201   1.276   1.208   1.030   1.230   1.200   1.288   1.162   1.097   1.078   1.161   0.940   1.211   1.084   0.881   1.042   1.280   1.232   1.385   1.344   1.243   1.533   1.348   1.420   1.756   1.753   1.734   1.713   1.478   1.425   1.524   1.257   1.122   1.119   1.035   0.850   1.123   1.157   1.110   1.181   1.253   1.283   1.309   1.469   1.550   1.634   1.542   1.186   1.268   1.320   1.387   1.088   1.083   1.338   1.161   1.117   1.328   1.336   1.280   1.074   1.075   1.320   1.163   1.113   0.939   0.979   0.951   1.223   0.917   0.677   1.134   1.151   1.305   1.005   1.012   0.971   1.070   1.289   1.083   1.245   1.105   1.216   1.201   1.295   1.340   1.263   1.332   1.259   1.162   1.033   1.150   1.329   1.513   1.696   1.883   1.677   1.311   1.329   1.546   1.156   1.137   1.220   1.042   1.257   1.396   1.184   1.169   1.456   1.535   1.614   1.416   1.382   1.194   1.220   1.172   1.258   1.202   1.283   1.363   1.313   1.191   1.077   1.097   1.367   1.534   1.345   1.288   1.184   1.086   1.067   1.186   1.225   1.232   1.016   1.074   1.123   1.145   1.130   1.068   0.949   1.076   1.199   1.326   1.532   1.659   1.537   1.316   1.089   1.111   0.961   0.821   0.881   0.966   0.979   0.971   1.016   1.030   1.293   1.486   1.245   1.401   0.996   0.769   0.965   1.039   0.915   0.975   1.027   0.961   1.105   0.954   1.059   1.092   1.087   1.280   1.213   1.316   1.083   1.052   1.242
   249.15    1.345   1.116   1.171   0.990   1.151   0.962   0.923   1.196   1.512   1.365   1.093   1.053   1.108   1.101   0.994   0.933   0.816   0.852   1.105   1.171   1.181   1.382   1.247   1.245   1.185   1.108   1.328   1.208   1.315   1.325   1.063   0.907   0.976   0.868   0.904   1.081   1.323   1.064   0.952   1.019   1.085   0.989   0.908   1.123   1.132   0.903   1.045   1.064   1.097   1.009   1.001   1.057   1.128   1.137   1.201   1.214   1.239   1.240   1.050   1.191   1.317   1.191   1.260   1.255   0.997   1.128   1.000   1.368   1.422   1.551   1.622   1.722   1.407   1.575   1.416   1.645   1.666   1.546   1.433   1.329   1.363   1.381   1.196   1.188   1.086   1.332   1.074   1.196   1.170   1.252   1.314   1.315   1.617   1.602   1.437   1.563   1.558   1.492   1.107   0.975   1.109   1.158   1.533   1.256   1.284   1.355   1.230   1.320   1.351   1.329   1.088   1.163   0.947   1.248   1.180   0.905   1.101   1.259   1.088   1.118   1.109   1.133   1.180   0.948   1.032   0.856   0.873   1.146   1.218   1.188   1.018   1.121   1.320   1.455   1.438   1.313   1.069   1.027   0.866   1.055   1.065   1.140   1.056   1.291   1.582   1.762   1.545   1.313   1.389   1.230   1.148   1.096   1.147   1.223   1.011   1.130   1.210   1.312   1.534   1.472   1.436   1.469   1.457   1.421   1.182   1.084   1.142   1.237   1.351   1.142   1.003   1.176   1.430   1.180   1.462   1.201   0.983   1.156   1.118   1.219   1.044   1.198   1.254   0.953   1.198   1.290   1.183   1.081   0.985   0.981   0.918   1.141   1.092   1.368   1.634   1.443   1.180   1.235   1.272   1.103   1.041   1.073   1.185   1.054   1.191   1.388   1.273   1.430   1.554   1.451   1.266   1.085   0.857   1.064   1.140   1.018   1.103   0.960   0.974   1.131   1.186   1.087   1.062   1.133   1.262   1.211   1.238   1.233   1.136   1.250
   244.07    1.311   1.448   0.994   1.022   1.055   0.976   1.052   1.299   1.399   1.397   1.325   1.214   1.131   1.034   0.884   0.889   1.074   1.071   1.224   1.102   1.136   1.246   1.178   1.411   1.479   1.271   1.410   1.527   1.519   1.180   1.123   0.962   1.109   0.886   0.987   1.005   1.034   0.999   0.841   1.017   1.263   1.202   0.991   1.170   1.041   0.807   0.697   0.989   0.887   0.852   0.915   1.049   0.858   1.037   1.004   1.262   1.222   1.202   1.194   1.215   1.408   1.385   1.261   1.282   1.088   1.049   1.099   1.100   1.179   1.365   1.372   1.659   1.426   1.538   1.426   1.341   1.514   1.540   1.453   1.606   1.180   1.439   1.078   1.143   1.163   1.265   0.988   1.089   1.196   1.282   1.219   1.403   1.455   1.406   1.438   1.550   1.577   1.513   1.068   1.203   1.372   1.342   1.542   1.570   1.299   1.338   1.098   1.132   1.314   1.093   0.892   0.969   1.174   1.183   1.305   1.092   1.318   1.235   1.248   1.353   1.285   1.034   1.286   0.951   1.000   0.809   0.807   0.949   1.111   1.170   1.178   1.051   1.172   1.208   1.177   1.167   1.108   1.043   0.984   1.031   1.106   1.171   1.159   1.414   1.633   1.748   1.308   1.003   1.178   1.321   1.194   1.057   1.115   1.072   1.008   1.014   0.873   1.057   1.253   1.391   1.351   1.137   1.201   1.024   1.007   1.082   1.219   1.208   1.222   1.257   1.105   1.101   1.182   1.123   1.397   1.013   1.087   1.007   1.155   1.013   1.036   1.202   1.334   1.034   1.179   1.501   1.217   1.345   1.240   1.193   0.970   1.082   1.099   1.452   1.454   1.415   1.172   1.270   1.243   0.984   1.020   0.895   0.938   1.255   1.382   1.663   1.399   1.319   1.438   1.383   1.248   0.776   0.891   0.963   1.188   1.013   1.203   1.310   1.046   1.015   1.046   1.170   1.167   1.135   1.053   1.139   0.981   1.117   1.395   1.739
   238.98    1.362   1.368   1.213   1.142   0.804   1.099   1.121   1.288   1.069   1.090   1.189   1.222   1.103   1.098   0.920   0.968   0.890   1.067   1.222   1.293   1.237   1.404   1.202   1.091   1.299   1.367   1.516   1.466   1.560   1.437   1.432   1.123   1.085   1.050   1.109   0.852   0.921   0.984   0.906   0.899   0.999   1.014   1.085   0.954   1.110   0.913   0.780   0.839   0.885   1.014   1.070   1.035   0.940   0.964   1.393   1.505   1.485   1.247   1.243   1.487   1.226   1.154   1.236   1.283   0.977   0.886   0.910   1.069   0.843   1.000   1.060   1.436   1.672   1.406   1.479   1.308   1.434   1.440   1.388   1.373   1.363   1.178   1.477   1.309   1.225   1.208   0.962   1.070   0.988   1.191   1.073   1.446   1.701   1.642   1.625   1.310   1.294   1.386   1.369   1.437   1.390   1.492   1.526   1.549   1.349   1.238   1.046   1.130   1.081   0.987   0.834   1.095   1.221   1.274   1.261   0.959   1.298   1.322   1.588   1.377   1.263   1.261   1.291   0.977   0.963   0.987   0.868   0.980   0.899   0.981   0.833   0.819   0.981   1.026   0.972   0.944   1.234   0.847   0.868   0.803   1.071   1.218   0.999   1.076   1.184   1.327   1.420   0.994   1.031   1.317   1.129   0.769   0.934   0.886   0.884   0.851   0.772   0.955   1.182   1.213   1.106   1.133   0.979   0.956   1.026   1.011   1.085   0.946   0.972   1.109   0.936   0.827   0.875   0.873   1.051   1.051   1.062   0.960   0.999   1.078   1.012   1.264   1.351   1.384   1.361   1.497   1.441   1.515   1.545   1.270   1.318   1.086   1.269   1.446   1.335   1.308   1.212   1.257   1.241   1.234   1.111   1.022   1.421   1.188   1.442   1.488   1.514   1.513   1.363   1.112   0.884   1.018   0.854   0.984   1.077   1.159   1.261   1.217   1.074   0.876   0.914   0.875   1.032   0.976   1.076   0.983   1.159   1.159   1.656   1.906
   233.90    1.428   1.264   1.202   1.102   1.001   1.210   0.968   1.120   1.211   1.115   1.037   1.136   1.144   1.066   1.121   0.892   0.925   0.961   1.081   1.227   1.245   1.474   1.179   1.037   1.228   1.147   1.226   1.246   1.214   1.386   1.211   1.190   1.261   1.093   0.961   0.933   0.689   0.835   0.923   0.825   1.124   1.000   0.975   0.718   0.931   0.717   0.887   0.792   0.829   0.943   1.069   1.243   1.295   1.278   1.287   1.324   1.061   1.127   1.157   1.234   1.123   1.126   0.932   1.184   0.926   1.172   0.955   0.954   0.767   0.798   1.123   1.410   1.655   1.254   1.474   1.181   1.243   1.437   1.402   1.045   1.040   1.293   1.406   1.374   1.281   1.042   1.089   0.823   0.877   0.978   0.937   1.225   1.361   1.700   1.602   1.177   1.285   1.458   1.403   1.406   1.548   1.849   1.672   1.404   1.287   1.244   1.048   0.974   0.914   1.050   1.064   1.129   1.099   1.084   1.214   0.941   1.329   1.585   1.366   1.167   1.103   0.882   1.150   1.183   0.969   1.047   0.857   1.020   1.149   0.970   1.110   0.972   1.002   1.047   0.947   1.124   1.160   1.172   1.172   0.820   1.026   1.127   1.026   0.925   1.065   1.040   1.128   1.142   0.919   1.092   1.249   0.885   0.937   0.884   1.006   0.888   1.051   0.815   0.935   1.111   0.993   1.063   1.032   1.111   0.940   0.858   0.859   0.917   1.101   0.990   0.875   0.739   0.803   0.839   0.851   1.175   1.408   1.015   0.930   1.038   1.138   1.082   1.122   1.397   1.485   1.662   1.449   1.456   1.646   1.588   1.256   1.302   1.470   1.523   1.393   1.201   1.336   1.488   1.170   1.463   1.228   1.280   1.481   1.520   1.545   1.094   1.190   1.159   1.146   1.136   1.080   0.997   0.885   1.165   1.227   1.092   1.088   1.106   0.865   0.800   0.788   0.776   0.937   0.704   0.920   0.739   0.981   1.171   1.446   1.800
   228.81    1.078   1.158   1.109   0.947   1.281   1.097   1.005   1.036   1.149   1.204   1.331   1.268   0.822   0.826   0.940   1.151   0.931   1.030   1.150   1.107   1.249   1.525   1.479   1.078   1.013   1.032   1.148   1.221   1.148   1.186   1.141   1.290   1.238   1.173   1.247   1.013   0.996   1.043   0.945   0.934   1.029   0.982   0.893   0.847   0.917   0.985   0.990   0.817   0.783   0.997   1.091   1.183   0.965   1.239   1.019   1.027   1.122   1.065   1.112   1.042   1.050   1.059   1.107   1.144   1.103   1.158   0.868   0.983   0.979   0.982   1.175   1.428   1.428   1.347   1.362   1.340   1.138   1.458   1.351   1.219   0.974   1.452   1.241   1.031   1.239   1.064   0.971   0.781   0.794   0.698   0.948   1.007   1.109   1.412   1.541   1.301   1.307   1.386   1.427   1.826   1.714   1.854   1.794   1.600   1.409   1.181   1.091   1.094   0.850   0.950   1.004   1.127   1.020   0.768   1.030   1.165   1.363   1.365   1.413   1.303   1.081   0.903   1.073   0.970   0.969   1.317   1.294   1.113   1.354   1.145   1.097   1.056   1.127   0.906   0.797   0.830   1.098   1.051   1.314   1.210   1.279   1.240   1.001   0.808   0.934   0.905   0.775   0.899   1.071   1.308   1.081   1.107   1.321   1.202   1.055   1.015   1.073   1.055   1.050   0.863   1.084   0.996   1.226   1.143   1.165   1.059   1.292   1.218   1.154   1.118   1.121   1.096   0.960   0.837   0.936   1.152   1.232   1.325   1.302   1.108   1.295   0.995   1.064   1.349   1.229   1.365   1.417   1.515   1.747   1.840   1.738   1.340   1.408   1.653   1.701   1.387   1.407   1.579   1.477   1.329   1.509   1.592   1.545   1.413   1.284   1.021   0.941   1.027   1.059   1.004   0.990   1.134   1.123   1.134   0.830   1.050   0.921   0.978   0.879   0.928   0.790   0.803   0.889   0.895   0.876   0.837   0.971   1.101   1.289   1.541
   223.73    0.943   1.063   1.003   1.034   0.963   1.109   1.166   1.318   1.320   1.147   1.086   1.122   0.769   0.830   0.770   1.210   1.169   1.132   1.123   1.187   1.394   1.387   1.384   1.139   1.028   1.178   1.046   1.126   1.072   1.076   1.258   1.074   1.463   1.207   1.184   1.072   1.276   1.433   1.281   0.926   0.737   0.786   0.897   0.931   1.045   1.180   0.963   1.061   0.886   0.831   1.216   1.345   1.391   1.248   1.272   1.268   1.364   1.207   1.110   1.140   0.969   0.873   0.938   1.108   0.869   0.930   0.885   0.884   0.972   1.041   0.992   1.013   1.311   1.429   1.340   1.242   1.413   1.493   1.191   1.034   1.065   1.400   1.369   1.332   1.348   1.070   0.791   0.724   0.888   0.990   1.064   1.196   1.204   1.366   1.550   1.235   1.432   1.524   1.732   1.897   1.815   1.868   1.684   1.378   1.534   1.199   1.080   1.079   1.112   0.911   0.978   0.991   0.989   0.726   1.018   1.013   1.081   1.218   1.086   1.263   1.065   0.916   0.999   0.869   0.952   1.293   1.166   1.201   1.256   1.122   0.990   1.125   1.285   1.182   1.079   1.059   1.091   0.979   1.117   1.424   1.266   1.244   0.888   1.009   1.023   0.898   1.003   0.945   1.397   1.606   1.355   1.190   1.102   1.492   1.566   1.208   0.915   0.649   0.801   0.833   0.930   0.913   0.965   1.368   1.096   1.277   1.210   1.124   1.491   1.350   1.234   1.064   1.093   0.972   0.958   1.136   1.162   1.186   1.108   1.137   1.221   1.014   1.085   1.284   1.516   1.258   1.283   1.317   1.689   1.544   1.569   1.448   1.683   1.787   1.737   1.394   1.464   1.548   1.215   1.173   1.278   1.255   1.169   1.191   1.045   0.906   0.930   0.921   0.893   1.177   1.116   1.092   0.862   0.888   1.007   1.048   1.040   0.957   0.905   0.892   0.861   1.195   1.141   1.104   0.874   0.953   1.044   1.169   1.354   1.437
   218.64    1.154   1.305   1.113   0.883   0.916   0.965   1.201   1.434   1.173   1.342   1.018   0.895   0.799   1.105   1.161   1.323   1.205   1.185   1.338   1.220   1.157   1.195   1.205   0.885   1.020   0.990   1.101   1.079   1.097   1.163   1.168   1.332   1.489   1.083   0.805   1.221   1.286   1.352   1.240   1.054   0.872   0.957   1.045   1.112   1.149   1.152   1.231   1.343   1.036   1.078   1.389   1.462   1.258   1.341   1.334   1.267   1.071   1.213   1.241   0.997   1.035   0.837   0.879   0.827   0.794   0.750   0.846   0.989   1.045   0.889   0.890   0.893   1.050   1.269   1.519   1.330   1.798   1.425   1.262   1.131   1.195   1.425   1.563   1.361   1.445   1.321   1.088   1.119   0.965   0.922   0.810   0.996   0.838   1.221   1.422   1.349   1.368   1.326   1.578   1.776   1.628   1.796   1.660   1.460   1.328   1.152   0.992   0.983   0.994   0.929   0.872   0.915   0.792   0.861   1.008   0.972   1.003   1.056   1.067   1.089   1.084   1.051   1.061   1.190   1.057   1.232   1.172   1.245   1.329   1.163   1.164   1.277   1.345   1.269   1.068   1.018   1.052   1.237   1.248   1.281   1.145   1.248   1.215   0.879   0.992   0.745   1.074   1.176   1.322   1.531   1.537   1.355   1.252   1.476   1.458   1.179   1.180   0.937   0.768   0.767   0.971   0.973   0.970   1.242   1.137   1.371   1.137   1.240   1.506   1.582   1.484   0.988   0.985   1.182   1.293   1.150   1.374   1.199   1.082   1.099   0.933   1.021   1.201   1.274   1.454   1.504   1.572   1.719   1.728   1.882   1.443   1.389   1.485   1.734   1.788   1.660   1.736   1.515   1.242   1.227   1.159   1.047   1.287   0.968   1.033   1.004   0.911   0.851   0.991   1.229   1.142   1.189   1.047   0.963   1.029   1.071   0.875   0.856   0.886   0.728   0.942   0.951   1.243   1.253   1.023   0.966   1.128   1.294   1.503   1.266
   213.56    1.081   1.290   1.080   0.971   0.976   0.833   1.056   1.477   1.477   1.549   1.194   0.899   0.967   1.113   1.328   1.338   1.308   1.232   1.310   1.231   1.181   1.065   1.137   0.840   0.869   0.965   0.896   0.921   0.941   0.913   0.980   1.115   1.432   1.166   1.138   1.223   1.412   1.187   1.217   1.230   0.971   1.220   1.217   1.485   1.191   1.191   1.177   1.045   1.099   1.033   1.290   1.596   1.511   1.119   1.172   0.991   1.003   1.184   1.088   0.962   1.054   0.935   0.856   1.161   1.018   0.917   1.094   0.866   1.070   1.273   1.125   0.982   0.827   1.097   1.448   1.468   1.687   1.655   1.586   1.409   1.164   1.459   1.611   1.542   1.125   1.090   1.434   1.398   1.088   0.887   1.063   0.971   0.997   1.317   1.515   1.243   1.390   1.519   1.635   1.646   1.637   1.490   1.368   1.174   1.162   1.055   1.145   1.341   1.119   0.989   1.163   1.021   0.968   1.050   0.980   0.946   0.809   0.910   0.780   0.919   0.971   0.870   0.875   0.963   1.104   1.062   1.368   1.228   1.475   1.362   1.076   1.118   1.277   1.241   1.036   1.131   1.268   1.542   1.441   1.207   1.375   1.331   1.199   1.191   1.097   0.918   0.905   1.193   1.083   1.407   1.522   1.513   1.327   1.268   1.320   1.376   1.001   1.103   0.853   0.808   0.979   1.139   1.117   1.300   1.207   1.283   1.319   1.371   1.319   1.346   1.160   1.073   0.997   1.246   1.448   1.404   1.368   1.187   1.236   1.043   1.033   0.975   1.070   1.087   1.190   1.381   1.464   1.654   1.516   1.556   1.658   1.238   1.405   1.560   1.519   1.388   1.389   1.421   1.056   0.975   0.878   0.964   1.123   1.022   1.006   0.964   0.877   0.986   0.880   1.221   1.094   0.969   0.716   0.949   0.903   0.913   0.899   0.966   0.838   0.793   0.911   1.363   1.270   1.089   0.889   1.034   1.060   1.127   1.176   1.199
   208.47    1.335   1.278   1.250   1.160   1.052   0.924   1.183   1.269   1.449   1.587   1.212   1.079   0.948   1.178   1.297   1.209   1.160   1.210   1.187   1.181   1.050   1.066   1.188   1.052   1.076   0.963   0.831   0.939   0.917   0.853   0.793   1.078   1.306   1.535   1.261   1.293   1.300   1.452   1.131   1.126   1.028   0.974   1.280   1.553   1.403   1.508   1.135   1.197   1.100   1.173   1.298   1.352   1.416   1.264   0.988   0.966   0.962   1.055   1.171   1.158   1.272   1.272   1.122   1.383   1.343   1.238   0.779   1.034   1.202   1.141   1.026   0.925   1.103   1.260   1.317   1.572   1.619   1.601   1.454   1.272   1.290   1.231   1.450   1.153   0.933   0.887   1.287   1.369   1.272   1.062   1.078   0.987   1.220   1.437   1.393   1.242   1.095   1.459   1.388   1.466   1.176   1.279   1.166   1.099   1.211   0.979   1.146   1.254   1.268   1.186   1.095   1.093   1.105   1.017   1.120   1.090   1.125   0.961   1.026   0.774   0.707   0.852   0.972   1.024   0.922   1.261   1.293   1.475   1.224   1.171   1.231   1.399   1.295   1.097   1.149   1.293   1.434   1.449   1.595   1.497   1.144   1.162   1.285   1.034   1.188   0.828   1.016   0.993   1.103   1.286   1.283   1.190   1.210   1.056   0.998   1.207   1.000   1.029   0.980   0.748   0.992   1.158   0.949   1.176   1.338   1.521   1.398   1.444   1.255   1.184   1.261   1.039   0.949   1.081   1.399   1.717   1.429   1.312   1.133   1.092   1.174   1.062   0.991   1.269   1.265   1.544   1.628   1.777   1.446   1.618   1.815   1.345   1.296   1.331   1.384   1.417   1.152   1.098   0.970   0.806   0.964   1.176   1.212   1.025   0.919   1.182   1.162   1.268   1.102   1.137   1.083   1.103   0.829   1.068   0.953   0.908   0.981   1.019   0.944   0.896   0.968   1.336   1.554   1.221   0.977   1.023   0.898   1.006   1.111   0.926
   203.39    1.064   1.226   1.276   1.089   1.244   1.238   1.378   1.066   1.386   1.453   1.381   1.155   1.303   1.343   1.304   0.887   0.904   1.155   1.146   1.156   1.133   0.973   1.088   1.084   1.000   1.049   1.165   1.351   1.048   0.817   0.871   1.168   1.347   1.423   1.658   1.562   1.197   1.321   1.338   1.193   1.075   1.156   1.382   1.558   1.594   1.475   1.540   1.342   1.042   1.077   1.053   1.215   1.316   1.229   1.180   0.841   1.049   1.109   1.157   1.080   1.285   1.409   1.160   1.285   1.209   1.168   0.873   1.021   1.138   1.096   0.930   0.894   1.067   1.364   1.425   1.429   1.483   1.513   1.417   1.103   1.118   0.938   1.301   1.248   1.066   1.023   1.045   1.007   1.135   1.100   1.140   1.245   1.436   1.291   1.469   1.289   1.431   1.631   1.684   1.547   1.090   1.264   1.129   1.047   1.264   1.284   1.221   1.206   0.995   1.182   0.997   1.034   1.099   1.271   1.254   1.134   1.182   1.116   1.299   0.961   1.183   1.011   0.953   1.234   1.074   1.145   1.387   1.410   1.120   1.225   1.268   1.159   1.130   0.941   1.225   1.191   1.315   1.468   1.450   1.196   1.079   0.896   1.211   1.284   0.977   1.027   1.028   1.205   1.177   1.390   1.306   0.943   1.196   1.086   1.201   1.039   0.803   0.863   1.007   0.803   0.911   1.038   0.957   0.986   1.246   1.311   1.151   0.814   1.266   1.519   1.058   1.096   1.032   1.183   1.533   1.664   1.599   1.518   1.067   1.314   1.237   1.081   1.207   1.245   1.582   1.639   1.506   1.636   1.470   1.423   1.474   1.403   1.147   1.217   1.047   1.563   1.689   1.313   1.120   0.994   1.014   0.926   1.008   0.990   0.887   1.098   1.139   1.155   1.248   1.144   1.184   1.348   1.021   1.101   1.241   1.172   1.103   0.916   0.749   0.966   0.948   1.069   1.427   1.404   1.035   0.980   0.906   0.895   0.841   0.894
   198.31    0.833   1.003   1.254   1.289   1.272   1.084   1.309   1.368   1.339   1.433   1.331   1.011   1.118   1.029   1.012   0.995   0.996   1.050   0.973   1.057   0.978   0.979   1.266   1.236   1.189   1.244   1.240   1.479   1.046   1.019   1.235   1.339   1.224   1.445   1.594   1.234   1.255   1.015   1.069   1.356   1.511   1.444   1.627   1.742   1.634   1.803   1.647   1.358   1.064   1.065   1.021   1.274   1.342   1.360   1.132   1.212   1.161   0.788   1.108   1.442   1.423   1.457   1.317   1.258   1.162   1.314   1.110   1.131   1.187   1.037   0.914   0.823   0.997   1.326   1.412   0.986   1.277   1.364   1.192   0.998   1.060   0.960   1.303   1.028   1.162   1.244   1.385   1.120   1.133   1.061   1.086   1.082   1.276   0.996   1.301   1.394   1.683   1.890   1.871   1.464   0.943   1.004   1.033   1.137   1.231   1.241   1.281   1.291   0.975   0.960   1.067   0.837   1.048   1.072   1.029   0.993   1.275   1.359   1.418   1.188   1.034   1.145   1.034   1.146   1.257   1.082   1.297   1.488   1.451   1.192   1.108   0.957   1.306   1.188   1.217   1.281   1.278   1.222   1.104   0.858   0.980   0.898   1.002   1.098   1.021   1.049   1.071   1.112   1.075   1.113   1.182   1.168   1.268   1.082   1.397   1.251   1.369   1.101   1.197   1.023   0.926   1.014   1.192   1.217   1.006   1.086   1.039   1.038   1.260   1.511   1.291   1.087   1.197   1.168   1.515   1.571   1.803   1.625   1.329   1.208   0.883   1.135   1.142   1.268   1.422   1.316   1.208   1.338   1.286   1.323   1.187   1.039   1.170   1.089   1.255   1.426   1.567   1.365   1.122   1.121   1.191   0.781   1.158   1.214   1.053   0.964   1.280   1.514   1.320   1.065   1.025   1.085   1.355   1.142   1.492   1.188   1.095   1.051   1.061   1.109   1.076   1.013   1.146   1.078   1.150   1.106   0.859   0.869   0.859   0.827
   193.22    1.230   1.229   1.188   1.303   1.047   1.132   1.308   1.341   1.084   1.136   1.084   1.042   1.164   0.913   0.926   0.887   0.989   0.992   1.012   1.016   1.094   1.251   1.230   1.349   1.286   1.261   1.286   1.175   1.239   1.303   1.339   1.385   1.315   1.360   1.454   1.356   1.042   0.884   1.121   1.401   1.595   1.707   1.722   1.732   1.641   1.738   1.754   1.497   1.191   1.127   0.852   1.205   1.486   1.650   1.341   1.268   0.963   0.831   1.065   1.234   1.288   1.468   1.355   1.207   1.317   1.436   1.045   1.034   0.934   0.863   0.982   0.833   1.062   1.151   1.182   1.000   1.088   1.218   1.157   1.073   1.126   1.103   1.173   1.268   1.036   1.358   1.419   1.356   1.074   1.030   1.179   0.963   1.004   0.999   1.361   1.534   1.688   1.725   1.476   1.519   0.896   0.833   0.929   1.257   1.272   0.973   1.153   1.160   1.047   0.789   1.002   1.009   0.951   0.904   0.840   0.938   1.038   1.123   1.207   1.079   1.327   0.966   0.842   0.990   1.247   1.284   1.249   1.439   1.714   1.522   1.398   1.458   1.706   1.360   1.163   1.399   1.391   1.315   1.328   0.862   0.970   1.080   0.968   1.023   1.021   1.198   1.001   0.965   1.048   0.873   1.066   1.221   1.320   1.429   1.471   1.434   1.319   0.969   0.935   0.886   0.857   0.821   0.973   0.926   1.011   0.834   1.151   0.909   1.099   1.330   1.321   1.349   1.474   1.314   1.713   1.807   1.710   1.471   1.148   1.031   0.918   0.937   1.168   1.331   1.501   1.433   1.574   1.257   1.159   1.313   1.024   0.915   0.931   1.035   1.311   1.334   1.289   1.318   1.250   1.155   1.060   0.872   1.205   1.282   1.282   1.109   1.204   1.308   1.344   1.144   1.010   0.975   1.195   1.323   1.364   1.275   0.930   0.836   0.833   0.930   1.018   0.794   1.030   0.958   1.229   1.206   0.939   0.898   1.004   0.928
   188.14    1.069   1.076   1.119   0.976   1.029   1.180   1.319   1.126   1.049   1.077   1.021   0.957   0.944   1.016   1.274   1.225   1.203   0.907   0.851   0.984   0.978   0.997   1.146   1.144   1.090   1.217   1.168   1.140   1.201   1.346   1.132   1.002   1.164   1.233   1.392   1.291   1.153   0.864   0.870   1.141   1.347   1.594   1.459   1.883   1.973   1.753   1.525   1.764   1.252   1.002   1.101   1.351   1.396   1.580   1.422   1.266   1.340   1.082   1.086   1.002   1.187   1.559   1.379   1.268   1.467   1.394   1.115   1.148   1.029   0.969   1.013   0.786   0.870   1.084   1.326   1.193   1.359   1.334   1.415   1.428   1.405   1.133   1.259   1.200   1.122   1.223   1.265   1.435   1.470   1.129   1.178   1.000   1.243   1.198   1.617   1.707   1.323   1.372   1.320   1.264   0.989   0.927   0.925   1.021   1.024   1.146   1.057   1.105   0.985   0.913   0.960   0.964   1.086   1.075   1.055   0.934   1.118   1.123   1.165   1.378   1.370   1.048   1.086   1.112   1.319   1.430   1.184   1.531   1.762   1.482   1.488   1.723   1.613   1.426   1.281   1.151   1.278   1.466   1.213   1.053   0.935   0.953   1.092   0.941   1.004   1.144   0.973   0.841   0.836   0.819   0.994   1.118   1.053   1.098   1.229   1.098   1.190   0.985   0.932   0.911   0.922   0.824   0.945   0.881   0.886   0.917   0.991   0.833   0.788   1.097   1.369   1.457   1.551   1.797   1.698   1.816   1.508   1.421   1.641   1.249   1.165   0.911   1.231   1.317   1.413   1.638   1.623   1.323   1.255   1.229   0.914   0.930   0.894   1.014   1.193   1.320   1.336   1.353   1.118   0.984   1.134   0.992   1.360   1.425   1.447   1.216   1.372   1.334   1.167   0.969   1.108   0.927   0.966   1.179   1.210   0.891   0.807   0.735   1.010   1.047   1.135   1.245   1.060   1.215   1.352   1.205   1.120   1.088   1.288   1.273
   183.05    1.264   1.046   0.986   1.179   1.140   1.250   1.195   1.163   1.403   1.065   1.208   0.927   0.968   1.201   1.244   1.275   1.325   1.030   0.962   0.858   0.951   0.751   0.919   1.131   1.200   1.162   1.099   1.120   1.143   1.131   1.004   1.143   1.243   1.377   1.502   1.385   1.181   0.950   1.028   1.042   1.217   1.344   1.473   1.791   1.925   1.627   1.689   1.669   1.426   1.187   1.307   1.263   1.348   1.322   1.206   1.277   1.091   1.174   0.960   1.240   1.032   1.287   1.356   1.580   1.611   1.416   1.391   1.109   1.163   0.898   0.976   0.800   1.033   1.127   1.240   1.309   1.298   1.092   1.046   1.427   1.280   1.496   1.494   1.174   0.953   1.012   1.036   1.326   1.355   1.179   1.268   1.214   1.166   1.502   1.528   1.500   1.047   1.198   1.197   1.136   0.951   1.071   0.982   0.839   1.082   1.047   1.137   1.205   1.397   1.145   1.109   1.034   0.921   0.918   1.025   1.052   1.054   1.215   1.220   1.112   0.939   1.040   1.054   1.124   1.337   1.428   1.325   1.376   1.664   1.853   1.684   1.567   1.370   1.184   1.095   1.295   1.481   1.520   1.133   0.942   0.974   0.830   0.867   0.718   0.983   1.150   0.967   0.993   1.147   0.816   1.010   0.993   1.205   1.159   1.288   1.109   1.219   0.894   0.986   1.024   0.899   0.871   0.959   1.092   0.957   0.925   0.820   0.832   1.021   1.241   1.446   1.578   1.681   1.726   1.783   1.842   1.876   1.637   1.586   1.233   1.407   1.200   1.127   1.174   1.596   1.743   1.653   1.515   1.544   1.538   1.187   1.094   0.931   0.955   0.984   1.235   1.196   1.030   0.953   1.150   1.307   1.368   1.401   1.641   1.438   1.286   1.234   1.193   1.168   1.087   1.073   1.034   1.020   1.065   1.036   1.201   1.107   1.205   1.180   1.381   1.308   1.336   1.132   1.123   1.281   1.288   1.047   1.112   1.355   1.090
   177.97    1.153   1.274   1.122   1.076   1.144   1.252   1.206   1.086   1.169   1.224   1.110   0.913   0.902   1.072   0.992   1.260   1.349   0.889   0.778   0.695   0.801   0.822   0.805   0.986   1.164   0.977   1.063   0.829   1.003   1.058   0.883   1.308   1.317   1.503   1.625   1.395   1.297   1.183   1.284   1.291   1.465   1.853   1.783   1.779   1.667   1.810   1.707   1.595   1.520   1.287   1.369   1.200   1.376   1.096   1.203   1.106   1.042   1.161   0.985   1.216   1.138   1.294   1.411   1.432   1.514   1.449   1.400   1.216   1.119   1.120   0.853   0.797   0.808   0.998   1.006   1.090   1.153   1.287   1.368   1.412   1.244   1.407   1.515   1.160   1.205   1.142   1.145   1.088   1.327   1.283   1.240   1.265   1.046   1.288   1.291   1.057   0.925   0.741   1.010   1.289   1.503   1.164   1.045   0.850   0.962   0.991   1.171   1.265   1.376   1.379   1.180   1.081   0.946   0.886   1.056   1.002   0.817   0.869   0.902   1.064   1.019   1.122   1.096   1.240   1.278   1.191   1.349   1.684   1.669   1.693   1.674   1.307   1.143   1.138   1.084   1.177   1.402   1.601   1.173   1.284   1.071   1.037   1.046   0.994   1.147   0.937   0.799   0.991   0.868   1.101   1.058   0.897   1.072   1.008   1.100   1.374   1.097   1.004   0.955   0.989   0.912   0.852   1.055   1.267   1.212   1.100   1.287   1.142   1.363   1.362   1.479   1.566   1.721   1.568   1.515   1.620   1.616   1.665   1.267   1.147   1.237   1.219   1.040   1.354   1.497   1.799   1.631   1.286   1.377   1.315   1.288   1.287   1.146   1.073   1.133   1.125   0.979   1.245   1.096   1.305   1.166   1.263   1.143   1.288   1.436   1.507   1.241   1.270   1.097   1.001   1.071   1.005   1.130   1.014   1.037   1.035   0.948   0.981   1.089   1.303   1.103   1.317   1.265   1.263   1.123   1.142   0.981   0.927   1.117   1.075
   172.88    1.377   1.363   1.262   1.145   1.290   0.913   0.964   1.052   1.058   0.984   0.915   1.026   0.816   0.836   0.988   1.222   1.050   0.907   0.874   0.710   0.890   0.872   0.958   1.108   0.904   0.960   1.143   0.888   1.254   1.564   1.415   1.156   1.465   1.247   1.508   1.539   1.597   1.273   1.197   1.381   1.562   1.720   1.847   1.621   1.856   2.189   1.903   1.794   1.751   1.601   1.321   1.384   1.314   0.924   1.082   1.061   0.972   1.020   0.903   1.044   1.299   1.588   1.625   1.747   1.643   1.481   1.336   1.036   1.013   0.850   0.873   0.841   0.842   0.739   0.860   1.058   1.231   1.377   1.233   1.295   1.599   1.340   1.484   1.199   1.116   1.190   1.148   1.052   1.196   1.028   0.938   1.263   1.138   1.259   1.085   0.911   0.824   0.758   0.836   1.030   1.359   1.382   1.248   0.986   1.430   1.286   1.257   1.550   1.422   1.378   1.162   0.954   1.198   0.889   0.922   0.890   1.036   0.918   0.638   1.059   0.985   0.912   1.062   1.030   1.425   1.428   1.365   1.492   1.620   1.606   1.484   1.176   1.331   1.187   1.135   1.489   1.780   1.480   1.301   1.138   1.257   1.005   0.926   1.129   0.988   0.941   0.941   0.917   0.927   0.965   0.996   0.951   1.126   0.996   1.062   1.258   0.922   1.079   0.834   0.824   0.838   1.018   1.262   1.374   1.348   1.415   1.357   1.348   1.374   1.320   1.253   1.445   1.522   1.556   1.272   1.510   1.528   1.486   1.317   1.184   1.195   1.305   1.119   1.203   1.571   1.724   1.714   1.429   1.466   1.262   1.196   1.235   1.083   1.171   1.021   1.062   1.241   1.119   1.317   1.326   1.129   1.311   1.164   1.263   1.307   1.386   1.415   1.421   1.622   1.364   1.388   0.949   0.920   0.964   0.848   0.855   0.917   0.817   0.898   1.198   1.304   1.284   1.580   1.061   0.837   0.976   1.091   1.100   1.080   0.856
   167.80    1.229   1.291   1.166   1.255   0.956   0.906   1.047   0.960   1.184   0.960   1.026   0.960   0.719   0.622   1.108   1.240   0.876   0.951   0.775   0.856   1.021   1.102   1.158   0.908   0.756   0.975   0.942   0.997   1.010   1.267   1.508   1.712   1.562   1.417   1.449   1.733   1.717   1.402   1.618   1.311   1.390   1.562   1.660   1.451   1.886   2.172   2.161   1.632   1.604   1.359   1.546   1.717   1.413   1.230   0.990   0.881   0.920   1.119   0.922   1.210   1.211   1.524   1.616   1.686   1.594   1.783   1.326   1.064   0.892   1.036   0.939   0.820   0.920   0.835   0.920   1.094   1.041   1.296   1.467   1.483   1.264   1.423   1.522   1.559   1.148   0.921   1.275   1.086   1.189   0.939   0.991   1.082   1.104   1.130   1.087   0.913   0.913   0.802   0.894   1.118   1.329   1.162   1.056   1.184   1.555   1.367   1.206   1.415   1.466   1.356   1.452   1.165   1.148   1.212   0.836   0.930   1.208   1.145   1.049   1.277   0.988   1.043   0.937   1.240   1.335   1.414   1.433   1.284   1.468   1.235   1.196   1.182   1.316   1.121   1.005   1.443   1.726   1.433   1.423   1.211   1.323   1.036   0.911   1.024   1.135   0.841   0.824   0.780   0.772   1.066   0.803   0.841   1.059   0.954   1.133   1.243   0.944   0.862   0.927   0.743   0.999   0.941   1.209   1.276   1.296   1.312   1.329   1.578   2.031   1.717   1.816   1.454   1.448   1.293   1.537   1.496   1.355   1.279   1.296   1.038   1.237   1.392   1.050   1.211   1.236   1.398   1.675   1.536   1.762   1.794   1.576   1.496   1.036   1.251   1.385   1.271   1.232   1.310   1.114   1.228   1.258   1.027   1.211   1.273   1.281   1.591   1.502   1.145   1.201   1.210   1.379   1.247   1.106   1.044   0.760   0.901   0.808   0.885   0.918   0.972   1.191   1.331   1.537   1.356   1.016   1.016   1.194   1.148   1.266   1.015
   162.71    1.396   1.498   1.116   1.018   1.221   1.058   0.771   0.936   0.999   0.912   0.965   0.916   0.985   1.013   0.979   1.073   1.037   0.917   0.896   0.693   0.894   1.104   1.173   0.836   0.982   1.024   0.973   0.718   0.810   1.037   1.260   1.282   1.277   1.407   1.301   1.778   1.605   1.576   1.423   1.346   1.541   1.827   1.694   1.575   1.950   2.052   2.190   1.857   1.554   1.305   1.397   1.836   1.609   1.358   1.154   0.926   0.996   1.222   1.322   1.439   1.375   1.154   1.488   1.410   1.446   1.647   1.322   1.129   0.980   0.968   0.855   0.962   1.106   1.035   1.234   1.059   1.180   1.333   1.409   1.343   1.286   1.088   1.251   1.429   1.195   1.182   1.253   1.329   1.087   0.988   0.879   1.006   1.235   1.039   0.902   0.891   0.811   0.912   1.051   0.941   1.215   1.180   1.015   1.421   1.573   1.516   1.282   1.423   1.486   1.379   1.455   1.105   1.282   1.296   1.019   0.950   1.052   1.294   1.453   1.309   1.337   1.070   0.999   1.198   1.101   1.287   1.358   1.485   1.486   1.256   1.044   1.243   1.230   1.303   1.234   1.574   1.525   1.689   1.529   1.134   1.075   1.411   1.306   1.045   1.100   0.970   1.126   0.933   1.244   1.134   1.050   0.980   0.998   0.850   0.974   1.006   0.939   0.765   0.957   0.781   1.144   1.144   1.218   1.173   1.078   1.536   1.774   1.836   2.058   2.048   1.504   1.676   1.486   1.454   1.690   1.655   1.391   1.274   1.083   1.105   1.313   1.419   1.251   1.133   1.467   1.214   1.464   1.594   1.607   1.436   1.377   1.382   1.011   1.142   1.029   1.176   1.349   1.293   1.413   1.133   0.933   1.112   1.033   0.963   1.151   1.439   1.402   1.467   1.181   1.159   1.300   1.238   0.994   0.967   0.800   1.023   1.045   0.809   0.765   0.962   1.176   1.284   1.648   1.558   1.403   1.196   1.422   1.372   1.551   1.141
   157.63    1.522   1.592   1.548   1.426   1.291   1.169   1.057   1.015   0.772   0.791   1.028   0.921   0.978   1.121   1.199   1.031   1.013   0.818   0.736   0.776   0.793   1.006   1.020   1.067   0.880   0.972   0.833   0.862   0.839   1.027   0.984   1.044   1.242   1.217   1.534   1.716   1.451   1.465   1.422   1.544   1.464   1.619   1.833   1.810   2.214   2.317   2.001   1.965   1.743   1.486   1.737   1.848   1.762   1.574   1.282   1.235   1.336   1.281   1.609   1.445   1.548   1.258   1.452   1.296   1.342   1.499   1.389   1.187   1.233   1.017   0.896   0.941   1.153   1.332   1.114   1.155   1.332   1.533   1.539   1.753   1.504   1.601   1.202   1.203   1.219   1.029   1.028   1.217   1.078   1.228   1.148   0.918   1.101   1.096   1.001   1.120   1.031   0.849   0.912   1.081   1.122   1.042   1.313   1.455   1.324   1.499   1.356   1.414   1.324   1.290   1.087   1.212   0.942   1.028   0.938   1.062   1.166   1.172   1.322   1.356   1.138   0.980   0.997   1.098   1.290   1.437   1.610   1.662   1.520   1.545   1.094   1.171   1.126   1.194   1.375   1.466   1.295   1.623   1.656   1.200   1.075   1.290   1.332   1.155   0.988   1.045   1.267   1.258   1.397   1.067   1.117   1.057   1.014   0.912   0.788   0.852   0.817   1.032   1.214   0.804   1.266   1.294   1.087   1.045   1.302   1.385   1.703   1.611   1.883   1.799   1.651   1.595   1.684   1.692   1.688   1.320   1.447   1.522   1.126   1.009   1.253   1.159   1.342   1.340   1.452   1.385   1.339   1.423   1.367   1.339   1.288   1.286   1.106   1.198   0.910   0.888   0.961   1.034   1.110   0.998   1.202   1.071   1.312   1.267   0.996   1.354   1.444   1.438   1.388   1.447   1.181   1.127   1.126   1.026   0.838   0.848   0.967   0.904   0.859   0.882   1.111   1.401   1.629   1.647   1.453   1.188   1.210   1.330   1.462   1.301
   152.54    1.294   1.616   1.744   1.732   1.649   1.409   1.190   0.953   0.797   0.930   1.017   0.787   0.845   0.990   1.000   1.170   1.135   1.008   0.846   0.958   0.960   1.127   0.979   1.240   1.086   0.953   0.827   0.675   0.792   0.869   1.025   1.005   0.989   1.028   1.248   1.513   1.423   1.483   1.654   1.444   1.771   1.793   1.653   1.885   2.044   2.152   2.049   1.997   1.627   1.720   1.799   1.785   1.380   1.280   1.242   1.028   0.978   1.084   1.132   1.379   1.428   1.516   1.565   1.342   1.361   1.382   1.485   1.183   1.386   1.025   0.956   1.018   1.039   1.322   1.290   1.196   1.467   1.164   1.423   1.634   1.836   1.847   1.574   1.172   1.301   1.052   1.212   1.255   1.246   1.232   1.177   1.287   1.216   1.254   1.157   1.188   1.085   1.068   1.003   1.249   1.000   1.235   1.430   1.416   1.487   1.261   1.398   1.431   1.358   1.131   1.168   1.095   1.047   1.113   0.963   0.987   0.903   1.020   1.051   1.160   0.932   0.906   1.059   1.157   1.228   1.402   1.319   1.364   1.307   1.247   1.216   0.871   1.111   1.216   1.248   1.198   1.443   1.317   1.306   1.322   1.058   1.113   1.033   0.929   1.255   1.411   1.549   1.404   1.472   1.383   1.280   1.356   1.440   1.150   1.066   1.046   1.001   1.071   1.224   0.903   1.154   1.536   1.260   1.179   1.264   1.558   1.569   1.455   1.709   1.689   1.542   1.751   1.786   1.689   1.743   1.777   1.406   1.471   1.402   1.092   1.165   1.317   1.329   1.507   1.390   1.085   1.264   1.164   1.192   1.223   1.201   1.158   1.020   0.907   1.191   1.107   1.146   1.336   1.427   1.199   1.143   1.193   1.498   1.168   1.259   1.272   1.450   1.332   1.282   1.169   1.171   1.159   1.139   1.001   0.873   0.956   1.114   0.985   1.075   0.952   1.061   1.071   1.290   1.219   1.353   1.165   1.157   1.142   1.123   0.893
   147.46    1.407   1.363   1.760   2.003   1.904   1.398   1.310   1.243   1.062   1.046   0.781   0.901   0.923   1.063   1.144   0.993   1.178   1.272   1.328   1.249   1.133   1.055   1.175   1.289   1.172   1.026   0.955   0.877   0.931   1.192   1.084   0.899   0.999   1.264   1.168   1.379   1.460   1.232   1.418   1.456   1.566   1.721   1.782   1.663   1.911   1.985   1.872   1.723   1.717   1.892   1.924   1.526   1.565   1.295   1.178   1.283   1.031   0.945   1.014   1.195   1.418   1.147   1.411   1.372   1.577   1.360   1.250   1.189   1.122   1.418   1.161   1.125   1.171   1.241   1.226   1.421   1.666   1.295   1.271   1.440   1.648   1.774   1.735   1.363   1.524   1.393   1.137   0.976   0.911   1.159   1.160   1.177   1.103   1.303   1.693   1.656   1.315   1.190   1.200   1.433   1.377   1.352   1.388   1.262   1.294   1.298   1.285   1.255   1.199   0.998   1.129   0.908   0.822   1.105   1.141   0.907   0.930   0.886   0.694   0.860   0.896   0.979   1.299   1.591   1.491   1.306   1.452   1.363   1.303   1.222   0.968   0.780   1.027   1.307   1.293   1.220   1.457   1.318   1.284   1.190   1.112   1.151   0.938   0.964   1.243   1.454   1.358   1.375   1.441   1.152   1.244   1.482   1.401   1.459   1.324   1.465   1.203   1.163   1.187   0.966   1.364   1.459   1.236   1.199   1.455   1.275   1.336   1.377   1.522   1.525   1.709   1.736   1.400   1.264   1.390   1.319   1.450   1.383   1.077   1.037   1.393   1.401   1.499   1.588   1.403   1.281   1.319   1.120   1.347   1.307   1.293   1.038   1.199   0.945   1.016   1.211   1.358   1.188   1.501   1.519   1.417   1.400   1.313   1.498   1.190   1.431   1.347   1.338   1.262   1.199   1.064   1.135   1.026   1.066   1.072   1.058   0.868   0.940   1.050   0.902   1.001   0.984   1.114   1.093   1.138   0.865   0.871   0.877   0.891   1.116
   142.37    1.248   1.406   1.737   1.798   1.691   1.494   1.465   1.241   1.227   0.977   1.107   0.907   1.022   1.093   1.096   0.916   1.076   1.316   1.186   1.137   0.943   0.890   1.100   1.187   1.126   1.345   1.009   1.065   0.966   1.068   1.216   0.951   1.026   0.987   1.036   1.241   1.235   1.231   1.302   1.462   1.697   1.801   1.712   1.597   1.886   1.859   2.057   2.125   2.053   1.653   1.862   1.755   1.557   1.365   1.226   1.560   1.362   0.972   1.416   1.428   1.334   1.372   1.275   1.264   1.437   1.422   0.987   0.964   1.208   1.315   1.543   1.107   1.174   1.123   1.095   1.374   1.559   1.377   1.624   1.591   1.421   1.682   1.705   1.816   1.331   1.325   1.121   1.151   0.800   0.939   1.258   1.087   1.158   1.575   1.756   1.607   1.592   1.538   1.406   1.520   2.025   1.770   1.634   1.411   1.294   1.168   1.506   1.652   1.705   1.143   1.330   1.171   1.056   1.111   1.003   1.104   0.826   0.723   0.684   0.825   0.926   1.348   1.463   1.505   1.504   1.704   1.632   1.514   1.303   1.169   0.981   0.982   1.122   1.249   1.319   1.314   1.405   1.686   1.553   1.279   1.196   1.022   0.891   0.936   1.162   1.224   1.298   1.304   1.235   1.003   1.359   1.504   1.607   1.489   1.113   1.212   1.257   0.959   0.784   1.022   1.125   1.339   1.066   1.246   1.175   1.221   0.945   1.108   1.336   1.579   1.578   1.256   1.286   1.320   1.012   1.136   1.247   1.279   1.070   1.226   1.243   1.577   1.546   1.652   1.954   1.509   1.367   1.206   1.442   1.438   1.209   1.264   1.299   1.133   1.326   1.215   1.237   1.281   1.410   1.410   1.620   1.725   1.521   1.506   1.640   1.493   1.505   1.334   1.205   1.014   1.194   1.061   0.980   1.033   1.001   0.991   0.747   0.770   0.996   1.004   0.819   0.865   1.099   1.387   1.042   0.988   0.929   0.827   0.856   1.082
   137.29    1.687   1.678   1.955   2.112   1.555   1.735   1.718   1.461   1.139   0.978   1.032   1.222   1.255   1.449   1.202   1.052   0.807   1.048   1.096   1.195   1.060   1.210   1.034   1.165   1.189   1.120   1.057   0.930   0.818   0.919   1.182   1.172   1.035   0.948   1.062   1.127   1.270   1.102   1.080   1.289   1.817   1.930   1.661   1.716   1.949   1.701   1.938   1.877   1.578   1.779   1.893   1.639   1.278   1.196   1.512   1.621   1.311   1.301   1.411   1.416   1.404   1.519   1.526   1.593   1.427   1.374   1.006   1.090   1.301   1.502   1.442   1.467   0.980   1.039   1.200   1.523   1.659   1.604   1.727   1.436   1.304   1.619   1.732   1.766   1.239   1.208   1.072   1.174   1.029   0.865   0.997   1.046   1.309   1.328   1.643   1.755   1.918   1.638   1.512   1.597   2.073   2.083   1.859   1.513   1.723   1.391   1.713   1.898   1.535   1.435   1.272   1.269   1.192   1.153   0.979   1.004   0.803   0.763   0.868   0.906   1.119   1.134   1.447   1.676   1.814   1.753   1.722   1.571   1.149   1.059   1.028   1.322   1.180   1.307   1.173   1.322   1.075   1.463   1.621   1.130   1.144   1.207   0.935   0.986   1.041   1.100   1.072   1.028   0.959   1.266   1.290   1.492   1.407   1.407   1.097   1.051   1.124   1.092   0.890   1.097   0.894   1.184   1.096   0.926   1.026   0.963   0.962   0.786   1.131   1.220   1.320   1.330   1.105   1.214   1.027   1.046   0.953   1.193   1.133   1.052   1.421   1.803   1.735   1.783   2.112   1.595   1.367   1.575   1.296   1.269   1.412   1.226   1.321   1.117   1.384   1.345   1.332   1.103   1.264   1.308   1.213   1.355   1.100   1.191   1.621   1.475   1.283   1.339   1.128   1.297   1.169   0.864   0.886   1.073   1.070   1.073   0.823   0.812   1.028   0.995   1.061   0.997   1.158   1.527   1.199   0.992   0.829   0.737   0.896   0.951
   132.20    1.587   1.718   1.649   1.859   1.804   1.751   1.442   1.260   1.080   0.875   1.079   1.043   1.267   1.395   1.465   1.224   0.990   1.060   0.980   1.130   1.215   1.228   1.043   1.142   1.129   1.077   0.921   0.941   0.851   0.789   1.075   1.053   1.136   1.011   1.082   0.911   1.109   1.200   1.625   1.451   1.859   2.081   1.969   1.685   1.750   1.874   1.808   1.665   1.682   1.564   1.607   1.638   1.315   1.208   1.692   1.449   1.480   1.321   1.086   1.231   1.450   1.480   1.738   1.732   1.571   1.369   1.188   1.190   1.350   1.345   1.521   1.337   1.139   1.103   1.226   1.530   1.491   1.564   1.500   1.516   1.500   1.492   1.553   1.528   1.369   1.119   1.189   1.053   1.138   0.959   0.906   0.865   1.018   1.072   1.334   1.387   1.687   1.774   1.540   1.935   2.011   2.198   2.152   1.746   1.521   1.511   1.642   1.813   1.424   1.556   1.710   1.643   1.192   1.002   1.022   0.841   0.930   0.753   1.073   1.438   1.597   1.271   1.602   1.838   1.719   1.826   1.787   1.387   1.379   1.052   1.024   1.477   1.337   1.441   1.439   1.272   1.240   1.442   1.470   1.133   1.304   1.259   1.302   1.095   1.191   1.131   1.028   1.133   1.388   1.463   1.456   1.453   1.333   1.313   1.245   1.221   1.046   1.032   1.129   1.089   1.179   1.107   0.767   1.049   0.945   0.936   0.805   1.065   1.080   1.166   0.870   1.237   1.188   1.245   0.903   0.927   0.885   0.908   1.052   1.012   1.435   1.708   1.602   1.933   2.003   1.771   1.496   1.692   1.591   1.543   1.656   1.619   1.654   1.469   1.419   1.138   1.399   1.255   1.280   1.173   1.115   1.138   1.118   0.975   1.352   1.677   1.505   1.535   1.280   1.257   0.925   0.972   0.812   1.090   1.110   1.098   0.977   1.144   1.096   1.282   1.230   1.435   1.691   1.564   1.454   1.025   0.856   0.779   0.736   0.926
   127.12    1.590   1.681   1.666   1.799   1.505   1.513   1.364   1.055   0.955   1.072   1.066   1.126   1.353   1.127   1.183   1.234   1.180   1.147   1.160   1.056   1.035   1.057   1.227   1.239   1.071   0.987   0.971   0.953   0.822   0.908   1.241   1.460   1.270   1.208   1.399   1.169   1.237   1.478   1.857   1.931   2.012   2.086   2.094   1.799   1.474   1.882   1.844   1.390   1.428   1.356   1.290   1.596   1.376   1.296   1.706   1.576   1.463   1.236   1.036   1.381   1.463   1.664   1.596   1.497   1.455   1.428   1.366   1.611   1.744   1.495   1.360   1.342   1.409   1.226   1.178   1.314   1.481   1.730   1.479   1.609   1.778   1.732   1.373   1.404   1.163   1.122   0.995   0.983   0.807   0.982   0.948   0.827   0.839   1.047   1.266   1.126   1.403   1.638   1.510   1.929   2.059   1.999   1.855   1.546   1.673   1.599   1.815   1.529   1.235   1.370   1.295   1.371   1.175   1.219   0.937   0.861   0.760   1.005   0.826   1.352   1.390   1.463   1.576   1.653   1.991   1.792   1.356   1.533   1.545   1.342   1.260   1.442   1.424   1.213   1.152   1.244   1.175   1.216   1.261   1.272   1.202   1.319   1.508   1.413   1.170   1.010   1.234   1.128   1.429   1.602   1.751   1.196   1.271   1.107   0.900   0.965   0.976   0.937   1.065   1.219   1.007   0.986   0.996   1.015   1.003   0.892   0.976   1.108   1.095   1.078   1.050   1.192   0.984   0.859   0.945   1.047   1.157   1.016   1.226   1.253   1.577   1.366   1.557   1.715   1.895   1.883   1.453   1.466   1.481   1.388   1.596   1.434   1.223   1.469   1.580   1.461   1.192   1.258   1.250   1.081   1.082   1.109   1.057   0.979   1.192   1.360   1.620   1.440   1.233   1.096   0.969   1.015   0.840   0.943   0.885   0.910   1.105   1.173   1.041   1.418   1.578   1.717   1.956   1.776   1.304   1.087   0.731   0.784   0.775   0.788
[...]
    45.76    0.781   0.781   0.781   0.781   0.781   0.781   0.781   0.781   0.781   0.781   0.781   0.781   0.781   0.781   0.781   0.781   0.781   0.781   0.781   0.781   0.781   0.781   0.781   0.781   0.781   0.781   0.781   0.781   0.781   0.781   0.781   0.781   0.781   0.781   0.781   0.781   0.781   0.781   0.781   0.781   0.781   0.781   0.781   0.781   0.781   0.781   0.781   0.781   0.781   0.781   0.781   0.781   0.781   0.781   0.781   0.781   0.781   0.781   0.781   0.781   0.781   0.781   0.781   0.781   0.781   0.781   0.781   0.781   0.781   0.781   0.781   0.781   0.781   0.781   0.781   0.781   0.781   0.781   0.781   0.781   0.781   0.781   0.781   0.781   0.781   0.781   0.781   0.781   0.781   0.781   0.781   0.781   0.781   0.781   0.781   0.781   0.781   0.781   0.781   0.781   0.781   0.781   0.781   0.781   0.781   0.781   0.781   0.781   0.781   0.781   0.781   0.781   0.781   0.781   0.781   0.781   0.781   0.781   0.781   0.781   0.781   0.781   0.781   0.781   0.781   0.781   0.781   0.781   0.781   0.781   0.781   0.781   0.781   0.781   0.781   0.781   0.781   0.781   0.781   0.781   0.781   0.781   0.781   0.781   0.781   0.781   0.781   0.781   0.781   0.781   0.781   0.781   0.781   0.781   0.781   0.781   0.781   0.781   0.781   0.781   0.781   0.781   0.781   0.781   0.781   0.781   0.781   0.781   0.781   0.781   0.781   0.781   0.781   0.781   0.781   0.781   0.781   0.781   0.781   0.781   0.781   0.781   0.781   0.781   0.781   0.781   0.781   0.781   0.781   0.781   0.781   0.781   0.781   0.781   0.781   0.781   0.781   0.781   0.781   0.781   0.781   0.781   0.781   0.781   0.781   0.781   0.781   0.781   0.781   0.781   0.781   0.781   0.781   0.781   0.781   0.781   0.781   0.781   0.781   0.781   0.781   0.781   0.781   0.781   0.781   0.781   0.781   0.781   0.781   0.781
    40.68    0.781   0.781   0.781   0.781   0.781   0.781   0.781   0.781   0.781   0.781   0.781   0.781   0.781   0.781   0.781   0.781   0.781   0.781   0.781   0.781   0.781   0.781   0.781   0.781   0.781   0.781   0.781   0.781   0.781   0.781   0.781   0.781   0.781   0.781   0.781   0.781   0.781   0.781   0.781   0.781   0.781   0.781   0.781   0.781   0.781   0.781   0.781   0.781   0.781   0.781   0.781   0.781   0.781   0.781   0.781   0.781   0.781   0.781   0.781   0.781   0.781   0.781   0.781   0.781   0.781   0.781   0.781   0.781   0.781   0.781   0.781   0.781   0.781   0.781   0.781   0.781   0.781   0.781   0.781   0.781   0.781   0.781   0.781   0.781   0.781   0.781   0.781   0.781   0.781   0.781   0.781   0.781   0.781   0.781   0.781   0.781   0.781   0.781   0.781   0.781   0.781   0.781   0.781   0.781   0.781   0.781   0.781   0.781   0.781   0.781   0.781   0.781   0.781   0.781   0.781   0.781   0.781   0.781   0.781   0.781   0.781   0.781   0.781   0.781   0.781   0.781   0.781   0.781   0.781   0.781   0.781   0.781   0.781   0.781   0.781   0.781   0.781   0.781   0.781   0.781   0.781   0.781   0.781   0.781   0.781   0.781   0.781   0.781   0.781   0.781   0.781   0.781   0.781   0.781   0.781   0.781   0.781   0.781   0.781   0.781   0.781   0.781   0.781   0.781   0.781   0.781   0.781   0.781   0.781   0.781   0.781   0.781   0.781   0.781   0.781   0.781   0.781   0.781   0.781   0.781   0.781   0.781   0.781   0.781   0.781   0.781   0.781   0.781   0.781   0.781   0.781   0.781   0.781   0.781   0.781   0.781   0.781   0.781   0.781   0.781   0.781   0.781   0.781   0.781   0.781   0.781   0.781   0.781   0.781   0.781   0.781   0.781   0.781   0.781   0.781   0.781   0.781   0.781   0.781   0.781   0.781   0.781   0.781   0.781   0.781   0.781   0.781   0.781   0.781   0.781
    35.59    0.781   0.781   0.781   0.781   0.781   0.781   0.781   0.781   0.781   0.781   0.781   0.781   0.781   0.781   0.781   0.781   0.781   0.781   0.781   0.781   0.781   0.781   0.781   0.781   0.781   0.781   0.781   0.781   0.781   0.781   0.781   0.781   0.781   0.781   0.781   0.781   0.781   0.781   0.781   0.781   0.781   0.781   0.781   0.781   0.781   0.781   0.781   0.781   0.781   0.781   0.781   0.781   0.781   0.781   0.781   0.781   0.781   0.781   0.781   0.781   0.781   0.781   0.781   0.781   0.781   0.781   0.781   0.781   0.781   0.781   0.781   0.781   0.781   0.781   0.781   0.781   0.781   0.781   0.781   0.781   0.781   0.781   0.781   0.781   0.781   0.781   0.781   0.781   0.781   0.781   0.781   0.781   0.781   0.781   0.781   0.781   0.781   0.781   0.781   0.781   0.781   0.781   0.781   0.781   0.781   0.781   0.781   0.781   0.781   0.781   0.781   0.781   0.781   0.781   0.781   0.781   0.781   0.781   0.781   0.781   0.781   0.781   0.781   0.781   0.781   0.781   0.781   0.781   0.781   0.781   0.781   0.781   0.781   0.781   0.781   0.781   0.781   0.781   0.781   0.781   0.781   0.781   0.781   0.781   0.781   0.781   0.781   0.781   0.781   0.781   0.781   0.781   0.781   0.781   0.781   0.781   0.781   0.781   0.781   0.781   0.781   0.781   0.781   0.781   0.781   0.781   0.781   0.781   0.781   0.781   0.781   0.781   0.781   0.781   0.781   0.781   0.781   0.781   0.781   0.781   0.781   0.781   0.781   0.781   0.781   0.781   0.781   0.781   0.781   0.781   0.781   0.781   0.781   0.781   0.781   0.781   0.781   0.781   0.781   0.781   0.781   0.781   0.781   0.781   0.781   0.781   0.781   0.781   0.781   0.781   0.781   0.781   0.781   0.781   0.781   0.781   0.781   0.781   0.781   0.781   0.781   0.781   0.781   0.781   0.781   0.781   0.781   0.781   0.781   0.781
    30.51    0.781   0.781   0.781   0.781   0.781   0.781   0.781   0.781   0.781   0.781   0.781   0.781   0.781   0.781   0.781   0.781   0.781   0.781   0.781   0.781   0.781   0.781   0.781   0.781   0.781   0.781   0.781   0.781   0.781   0.781   0.781   0.781   0.781   0.781   0.781   0.781   0.781   0.781   0.781   0.781   0.781   0.781   0.781   0.781   0.781   0.781   0.781   0.781   0.781   0.781   0.781   0.781   0.781   0.781   0.781   0.781   0.781   0.781   0.781   0.781   0.781   0.781   0.781   0.781   0.781   0.781   0.781   0.781   0.781   0.781   0.781   0.781   0.781   0.781   0.781   0.781   0.781   0.781   0.781   0.781   0.781   0.781   0.781   0.781   0.781   0.781   0.781   0.781   0.781   0.781   0.781   0.781   0.781   0.781   0.781   0.781   0.781   0.781   0.781   0.781   0.781   0.781   0.781   0.781   0.781   0.781   0.781   0.781   0.781   0.781   0.781   0.781   0.781   0.781   0.781   0.781   0.781   0.781   0.781   0.781   0.781   0.781   0.781   0.781   0.781   0.781   0.781   0.781   0.781   0.781   0.781   0.781   0.781   0.781   0.781   0.781   0.781   0.781   0.781   0.781   0.781   0.781   0.781   0.781   0.781   0.781   0.781   0.781   0.781   0.781   0.781   0.781   0.781   0.781   0.781   0.781   0.781   0.781   0.781   0.781   0.781   0.781   0.781   0.781   0.781   0.781   0.781   0.781   0.781   0.781   0.781   0.781   0.781   0.781   0.781   0.781   0.781   0.781   0.781   0.781   0.781   0.781   0.781   0.781   0.781   0.781   0.781   0.781   0.781   0.781   0.781   0.781   0.781   0.781   0.781   0.781   0.781   0.781   0.781   0.781   0.781   0.781   0.781   0.781   0.781   0.781   0.781   0.781   0.781   0.781   0.781   0.781   0.781   0.781   0.781   0.781   0.781   0.781   0.781   0.781   0.781   0.781   0.781   0.781   0.781   0.781   0.781   0.781   0.781   0.781
    25.42    0.781   0.781   0.781   0.781   0.781   0.781   0.781   0.781   0.781   0.781   0.781   0.781   0.781   0.781   0.781   0.781   0.781   0.781   0.781   0.781   0.781   0.781   0.781   0.781   0.781   0.781   0.781   0.781   0.781   0.781   0.781   0.781   0.781   0.781   0.781   0.781   0.781   0.781   0.781   0.781   0.781   0.781   0.781   0.781   0.781   0.781   0.781   0.781   0.781   0.781   0.781   0.781   0.781   0.781   0.781   0.781   0.781   0.781   0.781   0.781   0.781   0.781   0.781   0.781   0.781   0.781   0.781   0.781   0.781   0.781   0.781   0.781   0.781   0.781   0.781   0.781   0.781   0.781   0.781   0.781   0.781   0.781   0.781   0.781   0.781   0.781   0.781   0.781   0.781   0.781   0.781   0.781   0.781   0.781   0.781   0.781   0.781   0.781   0.781   0.781   0.781   0.781   0.781   0.781   0.781   0.781   0.781   0.781   0.781   0.781   0.781   0.781   0.781   0.781   0.781   0.781   0.781   0.781   0.781   0.781   0.781   0.781   0.781   0.781   0.781   0.781   0.781   0.781   0.781   0.781   0.781   0.781   0.781   0.781   0.781   0.781   0.781   0.781   0.781   0.781   0.781   0.781   0.781   0.781   0.781   0.781   0.781   0.781   0.781   0.781   0.781   0.781   0.781   0.781   0.781   0.781   0.781   0.781   0.781   0.781   0.781   0.781   0.781   0.781   0.781   0.781   0.781   0.781   0.781   0.781   0.781   0.781   0.781   0.781   0.781   0.781   0.781   0.781   0.781   0.781   0.781   0.781   0.781   0.781   0.781   0.781   0.781   0.781   0.781   0.781   0.781   0.781   0.781   0.781   0.781   0.781   0.781   0.781   0.781   0.781   0.781   0.781   0.781   0.781   0.781   0.781   0.781   0.781   0.781   0.781   0.781   0.781   0.781   0.781   0.781   0.781   0.781   0.781   0.781   0.781   0.781   0.781   0.781   0.781   0.781   0.781   0.781   0.781   0.781   0.781
    20.34    0.781   0.781   0.781   0.781   0.781   0.781   0.781   0.781   0.781   0.781   0.781   0.781   0.781   0.781   0.781   0.781   0.781   0.781   0.781   0.781   0.781   0.781   0.781   0.781   0.781   0.781   0.781   0.781   0.781   0.781   0.781   0.781   0.781   0.781   0.781   0.781   0.781   0.781   0.781   0.781   0.781   0.781   0.781   0.781   0.781   0.781   0.781   0.781   0.781   0.781   0.781   0.781   0.781   0.781   0.781   0.781   0.781   0.781   0.781   0.781   0.781   0.781   0.781   0.781   0.781   0.781   0.781   0.781   0.781   0.781   0.781   0.781   0.781   0.781   0.781   0.781   0.781   0.781   0.781   0.781   0.781   0.781   0.781   0.781   0.781   0.781   0.781   0.781   0.781   0.781   0.781   0.781   0.781   0.781   0.781   0.781   0.781   0.781   0.781   0.781   0.781   0.781   0.781   0.781   0.781   0.781   0.781   0.781   0.781   0.781   0.781   0.781   0.781   0.781   0.781   0.781   0.781   0.781   0.781   0.781   0.781   0.781   0.781   0.781   0.781   0.781   0.781   0.781   0.781   0.781   0.781   0.781   0.781   0.781   0.781   0.781   0.781   0.781   0.781   0.781   0.781   0.781   0.781   0.781   0.781   0.781   0.781   0.781   0.781   0.781   0.781   0.781   0.781   0.781   0.781   0.781   0.781   0.781   0.781   0.781   0.781   0.781   0.781   0.781   0.781   0.781   0.781   0.781   0.781   0.781   0.781   0.781   0.781   0.781   0.781   0.781   0.781   0.781   0.781   0.781   0.781   0.781   0.781   0.781   0.781   0.781   0.781   0.781   0.781   0.781   0.781   0.781   0.781   0.781   0.781   0.781   0.781   0.781   0.781   0.781   0.781   0.781   0.781   0.781   0.781   0.781   0.781   0.781   0.781   0.781   0.781   0.781   0.781   0.781   0.781   0.781   0.781   0.781   0.781   0.781   0.781   0.781   0.781   0.781   0.781   0.781   0.781   0.781   0.781   0.781
    15.25    0.781   0.781   0.781   0.781   0.781   0.781   0.781   0.781   0.781   0.781   0.781   0.781   0.781   0.781   0.781   0.781   0.781   0.781   0.781   0.781   0.781   0.781   0.781   0.781   0.781   0.781   0.781   0.781   0.781   0.781   0.781   0.781   0.781   0.781   0.781   0.781   0.781   0.781   0.781   0.781   0.781   0.781   0.781   0.781   0.781   0.781   0.781   0.781   0.781   0.781   0.781   0.781   0.781   0.781   0.781   0.781   0.781   0.781   0.781   0.781   0.781   0.781   0.781   0.781   0.781   0.781   0.781   0.781   0.781   0.781   0.781   0.781   0.781   0.781   0.781   0.781   0.781   0.781   0.781   0.781   0.781   0.781   0.781   0.781   0.781   0.781   0.781   0.781   0.781   0.781   0.781   0.781   0.781   0.781   0.781   0.781   0.781   0.781   0.781   0.781   0.781   0.781   0.781   0.781   0.781   0.781   0.781   0.781   0.781   0.781   0.781   0.781   0.781   0.781   0.781   0.781   0.781   0.781   0.781   0.781   0.781   0.781   0.781   0.781   0.781   0.781   0.781   0.781   0.781   0.781   0.781   0.781   0.781   0.781   0.781   0.781   0.781   0.781   0.781   0.781   0.781   0.781   0.781   0.781   0.781   0.781   0.781   0.781   0.781   0.781   0.781   0.781   0.781   0.781   0.781   0.781   0.781   0.781   0.781   0.781   0.781   0.781   0.781   0.781   0.781   0.781   0.781   0.781   0.781   0.781   0.781   0.781   0.781   0.781   0.781   0.781   0.781   0.781   0.781   0.781   0.781   0.781   0.781   0.781   0.781   0.781   0.781   0.781   0.781   0.781   0.781   0.781   0.781   0.781   0.781   0.781   0.781   0.781   0.781   0.781   0.781   0.781   0.781   0.781   0.781   0.781   0.781   0.781   0.781   0.781   0.781   0.781   0.781   0.781   0.781   0.781   0.781   0.781   0.781   0.781   0.781   0.781   0.781   0.781   0.781   0.781   0.781   0.781   0.781   0.781
    10.17    0.781   0.781   0.781   0.781   0.781   0.781   0.781   0.781   0.781   0.781   0.781   0.781   0.781   0.781   0.781   0.781   0.781   0.781   0.781   0.781   0.781   0.781   0.781   0.781   0.781   0.781   0.781   0.781   0.781   0.781   0.781   0.781   0.781   0.781   0.781   0.781   0.781   0.781   0.781   0.781   0.781   0.781   0.781   0.781   0.781   0.781   0.781   0.781   0.781   0.781   0.781   0.781   0.781   0.781   0.781   0.781   0.781   0.781   0.781   0.781   0.781   0.781   0.781   0.781   0.781   0.781   0.781   0.781   0.781   0.781   0.781   0.781   0.781   0.781   0.781   0.781   0.781   0.781   0.781   0.781   0.781   0.781   0.781   0.781   0.781   0.781   0.781   0.781   0.781   0.781   0.781   0.781   0.781   0.781   0.781   0.781   0.781   0.781   0.781   0.781   0.781   0.781   0.781   0.781   0.781   0.781   0.781   0.781   0.781   0.781   0.781   0.781   0.781   0.781   0.781   0.781   0.781   0.781   0.781   0.781   0.781   0.781   0.781   0.781   0.781   0.781   0.781   0.781   0.781   0.781   0.781   0.781   0.781   0.781   0.781   0.781   0.781   0.781   0.781   0.781   0.781   0.781   0.781   0.781   0.781   0.781   0.781   0.781   0.781   0.781   0.781   0.781   0.781   0.781   0.781   0.781   0.781   0.781   0.781   0.781   0.781   0.781   0.781   0.781   0.781   0.781   0.781   0.781   0.781   0.781   0.781   0.781   0.781   0.781   0.781   0.781   0.781   0.781   0.781   0.781   0.781   0.781   0.781   0.781   0.781   0.781   0.781   0.781   0.781   0.781   0.781   0.781   0.781   0.781   0.781   0.781   0.781   0.781   0.781   0.781   0.781   0.781   0.781   0.781   0.781   0.781   0.781   0.781   0.781   0.781   0.781   0.781   0.781   0.781   0.781   0.781   0.781   0.781   0.781   0.781   0.781   0.781   0.781   0.781   0.781   0.781   0.781   0.781   0.781   0.781
     5.08    0.781   0.781   0.781   0.781   0.781   0.781   0.781   0.781   0.781   0.781   0.781   0.781   0.781   0.781   0.781   0.781   0.781   0.781   0.781   0.781   0.781   0.781   0.781   0.781   0.781   0.781   0.781   0.781   0.781   0.781   0.781   0.781   0.781   0.781   0.781   0.781   0.781   0.781   0.781   0.781   0.781   0.781   0.781   0.781   0.781   0.781   0.781   0.781   0.781   0.781   0.781   0.781   0.781   0.781   0.781   0.781   0.781   0.781   0.781   0.781   0.781   0.781   0.781   0.781   0.781   0.781   0.781   0.781   0.781   0.781   0.781   0.781   0.781   0.781   0.781   0.781   0.781   0.781   0.781   0.781   0.781   0.781   0.781   0.781   0.781   0.781   0.781   0.781   0.781   0.781   0.781   0.781   0.781   0.781   0.781   0.781   0.781   0.781   0.781   0.781   0.781   0.781   0.781   0.781   0.781   0.781   0.781   0.781   0.781   0.781   0.781   0.781   0.781   0.781   0.781   0.781   0.781   0.781   0.781   0.781   0.781   0.781   0.781   0.781   0.781   0.781   0.781   0.781   0.781   0.781   0.781   0.781   0.781   0.781   0.781   0.781   0.781   0.781   0.781   0.781   0.781   0.781   0.781   0.781   0.781   0.781   0.781   0.781   0.781   0.781   0.781   0.781   0.781   0.781   0.781   0.781   0.781   0.781   0.781   0.781   0.781   0.781   0.781   0.781   0.781   0.781   0.781   0.781   0.781   0.781   0.781   0.781   0.781   0.781   0.781   0.781   0.781   0.781   0.781   0.781   0.781   0.781   0.781   0.781   0.781   0.781   0.781   0.781   0.781   0.781   0.781   0.781   0.781   0.781   0.781   0.781   0.781   0.781   0.781   0.781   0.781   0.781   0.781   0.781   0.781   0.781   0.781   0.781   0.781   0.781   0.781   0.781   0.781   0.781   0.781   0.781   0.781   0.781   0.781   0.781   0.781   0.781   0.781   0.781   0.781   0.781   0.781   0.781   0.781   0.781
     0.00    0.781   0.781   0.781   0.781   0.781   0.781   0.781   0.781   0.781   0.781   0.781   0.781   0.781   0.781   0.781   0.781   0.781   0.781   0.781   0.781   0.781   0.781   0.781   0.781   0.781   0.781   0.781   0.781   0.781   0.781   0.781   0.781   0.781   0.781   0.781   0.781   0.781   0.781   0.781   0.781   0.781   0.781   0.781   0.781   0.781   0.781   0.781   0.781   0.781   0.781   0.781   0.781   0.781   0.781   0.781   0.781   0.781   0.781   0.781   0.781   0.781   0.781   0.781   0.781   0.781   0.781   0.781   0.781   0.781   0.781   0.781   0.781   0.781   0.781   0.781   0.781   0.781   0.781   0.781   0.781   0.781   0.781   0.781   0.781   0.781   0.781   0.781   0.781   0.781   0.781   0.781   0.781   0.781   0.781   0.781   0.781   0.781   0.781   0.781   0.781   0.781   0.781   0.781   0.781   0.781   0.781   0.781   0.781   0.781   0.781   0.781   0.781   0.781   0.781   0.781   0.781   0.781   0.781   0.781   0.781   0.781   0.781   0.781   0.781   0.781   0.781   0.781   0.781   0.781   0.781   0.781   0.781   0.781   0.781   0.781   0.781   0.781   0.781   0.781   0.781   0.781   0.781   0.781   0.781   0.781   0.781   0.781   0.781   0.781   0.781   0.781   0.781   0.781   0.781   0.781   0.781   0.781   0.781   0.781   0.781   0.781   0.781   0.781   0.781   0.781   0.781   0.781   0.781   0.781   0.781   0.781   0.781   0.781   0.781   0.781   0.781   0.781   0.781   0.781   0.781   0.781   0.781   0.781   0.781   0.781   0.781   0.781   0.781   0.781   0.781   0.781   0.781   0.781   0.781   0.781   0.781   0.781   0.781   0.781   0.781   0.781   0.781   0.781   0.781   0.781   0.781   0.781   0.781   0.781   0.781   0.781   0.781   0.781   0.781   0.781   0.781   0.781   0.781   0.781   0.781   0.781   0.781   0.781   0.781   0.781   0.781   0.781   0.781   0.781   0.781

   Mean standard deviation across all grid points:
      u component:    1.261 m/s
      v component:    1.199 m/s
      w component:    0.781 m/s


U-component (X) statistics from the interpolated hub point:

   Mean =   7.6773 m/s
   TI   =   9.5031 %


Processing complete.  1118 CPU seconds used.
